ACE
     RDKit          3D

  3  2  0  0  0  0  0  0  0  0999 V2000
   -0.1330    0.4530    0.0000 C   0  0  0  0  0  0  0  0  0  0  0  0
   -1.1130   -0.2520    0.0000 O   0  0  0  0  0  0  0  0  0  0  0  0
    1.2410   -0.1670    0.0000 C   0  0  0  0  0  0  0  0  0  0  0  0
  1  2  2  0
  1  3  1  0
M  END
>  <LigandName>  (1) 
ACE

>  <Denticity>  (1) 
1

>  <DenticityDescription>  (1) 
monodentate

>  <Delta_cm-1>  (1) 
20000

>  <DeltaConfidence>  (1) 
default

>  <SMILES>  (1) 
[H]C(=O)C([H])([H])[H]

>  <NetFormalCharge>  (1) 
0

$$$$

     RDKit          3D

  4  3  0  0  0  0  0  0  0  0999 V2000
   -0.6645   -0.0502   -0.0382 C   0  0  0  0  0  0  0  0  0  0  0  0
    0.8168    0.1015    0.0391 C   0  0  0  0  0  0  0  0  0  0  0  0
    1.3228    1.2111    0.3513 O   0  0  0  0  0  0  0  0  0  0  0  0
    1.6412   -0.9946   -0.1802 O   0  0  0  0  0  1  0  0  0  0  0  0
  1  2  1  0
  2  3  2  0
  2  4  1  0
M  CHG  1   4  -1
M  END
>  <LigandName>  (2) 
Acetate

>  <SMILES>  (2) 
CC(=O)[O-]

>  <FieldStrength>  (2) 
moderate

>  <Delta_cm-1>  (2) 
20000

>  <DonorAtom>  (2) 
O,O

>  <Denticity>  (2) 
2

>  <DenticityDescription>  (2) 
bidentate

>  <MolecularWeight>  (2) 
59.04

>  <HDonors>  (2) 
0

>  <HAcceptors>  (2) 
2

>  <LogP>  (2) 
-1.24

>  <NumAtoms>  (2) 
7

>  <NetFormalCharge>  (2) 
-1

$$$$
ACT
     RDKit          3D

  4  3  0  0  0  0  0  0  0  0999 V2000
   -0.0720    0.0000    0.0000 C   0  0  0  0  0  0  0  0  0  0  0  0
   -0.6820    1.0560    0.0000 O   0  0  0  0  0  0  0  0  0  0  0  0
   -0.6820   -1.0560    0.0000 O   0  0  0  0  0  0  0  0  0  0  0  0
    1.4350    0.0000    0.0000 C   0  0  0  0  0  0  0  0  0  0  0  0
  1  2  2  0
  1  3  1  0
  1  4  1  0
M  CHG  1   3  -1
M  END
>  <LigandName>  (3) 
ACT

>  <Denticity>  (3) 
1

>  <DenticityDescription>  (3) 
monodentate

>  <Delta_cm-1>  (3) 
20000

>  <DeltaConfidence>  (3) 
estimated

>  <SMILES>  (3) 
[H]C([H])([H])C(=O)[O-]

>  <NetFormalCharge>  (3) 
-1

$$$$
ADP
     RDKit          3D

 27 29  0  0  1  0  0  0  0  0999 V2000
    1.1620   -0.2210   -5.6850 P   0  0  0  0  0  0  0  0  0  0  0  0
    1.7250    1.1330   -5.4920 O   0  0  0  0  0  0  0  0  0  0  0  0
    2.1900   -1.1120   -6.5460 O   0  0  0  0  0  0  0  0  0  0  0  0
   -0.2400   -0.1130   -6.4670 O   0  0  0  0  0  0  0  0  0  0  0  0
   -0.1050    0.0250   -3.4460 P   0  0  1  0  0  0  0  0  0  0  0  0
    0.4760    1.3760   -3.2880 O   0  0  0  0  0  0  0  0  0  0  0  0
   -1.4870    0.1290   -4.2660 O   0  0  0  0  0  0  0  0  0  0  0  0
    0.9250   -0.9130   -4.2500 O   0  0  0  0  0  0  0  0  0  0  0  0
   -0.3890   -0.6090   -1.9940 O   0  0  0  0  0  0  0  0  0  0  0  0
   -1.3070    0.2640   -1.3330 C   0  0  0  0  0  0  0  0  0  0  0  0
   -1.6200   -0.2840    0.0590 C   0  0  1  0  0  0  0  0  0  0  0  0
   -0.4170   -0.3480    0.8570 O   0  0  0  0  0  0  0  0  0  0  0  0
   -2.5500    0.6830    0.8250 C   0  0  1  0  0  0  0  0  0  0  0  0
   -3.9070    0.2450    0.7390 O   0  0  0  0  0  0  0  0  0  0  0  0
   -2.0470    0.6110    2.2860 C   0  0  1  0  0  0  0  0  0  0  0  0
   -3.0800    0.1290    3.1480 O   0  0  0  0  0  0  0  0  0  0  0  0
   -0.8710   -0.3880    2.2270 C   0  0  2  0  0  0  0  0  0  0  0  0
    0.2010    0.0310    3.1320 N   0  0  0  0  0  0  0  0  0  0  0  0
    1.2310    0.8700    2.8270 C   0  0  0  0  0  0  0  0  0  0  0  0
    2.0000    1.0270    3.8650 N   0  0  0  0  0  0  0  0  0  0  0  0
    1.5090    0.3050    4.9020 C   0  0  0  0  0  0  0  0  0  0  0  0
    1.9100    0.0870    6.2310 C   0  0  0  0  0  0  0  0  0  0  0  0
    3.0440    0.6970    6.7380 N   0  0  0  0  0  0  0  0  0  0  0  0
    1.1710   -0.7140    6.9910 N   0  0  0  0  0  0  0  0  0  0  0  0
    0.0880   -1.3000    6.5160 C   0  0  0  0  0  0  0  0  0  0  0  0
   -0.3210   -1.1300    5.2770 N   0  0  0  0  0  0  0  0  0  0  0  0
    0.3530   -0.3460    4.4420 C   0  0  0  0  0  0  0  0  0  0  0  0
  1  2  2  0
  1  3  1  0
  1  4  1  0
  1  8  1  0
  5  6  2  0
  5  7  1  6
  5  8  1  0
  5  9  1  0
  9 10  1  0
 11 10  1  6
 11 12  1  0
 11 13  1  0
 12 17  1  0
 13 14  1  1
 13 15  1  0
 15 16  1  1
 15 17  1  0
 17 18  1  1
 18 19  1  0
 18 27  1  0
 19 20  2  0
 20 21  1  0
 21 22  2  0
 21 27  1  0
 22 23  1  0
 22 24  1  0
 24 25  2  0
 25 26  1  0
 26 27  2  0
M  END
>  <LigandName>  (4) 
ADP

>  <Denticity>  (4) 
3

>  <DenticityDescription>  (4) 
tridentate

>  <Delta_cm-1>  (4) 
22916

>  <DeltaConfidence>  (4) 
estimated

>  <SMILES>  (4) 
[H]O[C@@]1([H])[C@@]([H])(O[H])[C@]([H])(n2c([H])nc3c(N([H])[H])nc([H])nc32)O[C@]1([H])C([H])([H])O[P@](=O)(O[H])OP(=O)(O[H])O[H]

>  <NetFormalCharge>  (4) 
0

$$$$
AMP
     RDKit          3D

 23 25  0  0  1  0  0  0  0  0999 V2000
   -4.7830   -0.9800    0.1050 P   0  0  0  0  0  0  0  0  0  0  0  0
   -5.8200   -0.0050   -0.3020 O   0  0  0  0  0  0  0  0  0  0  0  0
   -5.3110   -1.8280    1.3680 O   0  0  0  0  0  0  0  0  0  0  0  0
   -4.4740   -1.9780   -1.1190 O   0  0  0  0  0  0  0  0  0  0  0  0
   -3.4370   -0.1950    0.5110 O   0  0  0  0  0  0  0  0  0  0  0  0
   -2.7820    0.7270   -0.3620 C   0  0  0  0  0  0  0  0  0  0  0  0
   -1.5400    1.2900    0.3310 C   0  0  1  0  0  0  0  0  0  0  0  0
   -0.5710    0.2460    0.5230 O   0  0  0  0  0  0  0  0  0  0  0  0
   -0.8850    2.3650   -0.5580 C   0  0  1  0  0  0  0  0  0  0  0  0
   -0.8520    3.6230    0.1190 O   0  0  0  0  0  0  0  0  0  0  0  0
    0.5520    1.8390   -0.7940 C   0  0  1  0  0  0  0  0  0  0  0  0
    1.5030    2.9030   -0.7200 O   0  0  0  0  0  0  0  0  0  0  0  0
    0.7330    0.8500    0.3860 C   0  0  2  0  0  0  0  0  0  0  0  0
    1.7400   -0.1630    0.0600 N   0  0  0  0  0  0  0  0  0  0  0  0
    1.5080   -1.3690   -0.5300 C   0  0  0  0  0  0  0  0  0  0  0  0
    2.6280   -2.0170   -0.6720 N   0  0  0  0  0  0  0  0  0  0  0  0
    3.6460   -1.2700   -0.1830 C   0  0  0  0  0  0  0  0  0  0  0  0
    5.0360   -1.4470   -0.0690 C   0  0  0  0  0  0  0  0  0  0  0  0
    5.6420   -2.6060   -0.5200 N   0  0  0  0  0  0  0  0  0  0  0  0
    5.7550   -0.4740    0.4820 N   0  0  0  0  0  0  0  0  0  0  0  0
    5.1860    0.6360    0.9140 C   0  0  0  0  0  0  0  0  0  0  0  0
    3.8890    0.8450    0.8290 N   0  0  0  0  0  0  0  0  0  0  0  0
    3.0900   -0.0680    0.2870 C   0  0  0  0  0  0  0  0  0  0  0  0
  1  2  2  0
  1  3  1  0
  1  4  1  0
  1  5  1  0
  5  6  1  0
  7  6  1  6
  7  8  1  0
  7  9  1  0
  8 13  1  0
  9 10  1  1
  9 11  1  0
 11 12  1  1
 11 13  1  0
 13 14  1  6
 14 15  1  0
 14 23  1  0
 15 16  2  0
 16 17  1  0
 17 18  2  0
 17 23  1  0
 18 19  1  0
 18 20  1  0
 20 21  2  0
 21 22  1  0
 22 23  2  0
M  END
>  <LigandName>  (5) 
AMP

>  <Denticity>  (5) 
3

>  <DenticityDescription>  (5) 
tridentate

>  <Delta_cm-1>  (5) 
22700

>  <DeltaConfidence>  (5) 
estimated

>  <SMILES>  (5) 
[H]O[C@@]1([H])[C@@]([H])(O[H])[C@]([H])(n2c([H])nc3c(N([H])[H])nc([H])nc32)O[C@]1([H])C([H])([H])OP(=O)(O[H])O[H]

>  <NetFormalCharge>  (5) 
0

$$$$

     RDKit          3D

  7  7  0  0  0  0  0  0  0  0999 V2000
    0.2211   -1.1132    0.4681 C   0  0  0  0  0  0  0  0  0  0  0  0
   -1.1765   -1.1238    0.5211 C   0  0  0  0  0  0  0  0  0  0  0  0
   -1.9028   -0.0165    0.0730 C   0  0  0  0  0  0  0  0  0  0  0  0
   -1.2323    1.1030   -0.4287 C   0  0  0  0  0  0  0  0  0  0  0  0
    0.1653    1.1166   -0.4830 C   0  0  0  0  0  0  0  0  0  0  0  0
    0.8991    0.0078   -0.0345 C   0  0  0  0  0  0  0  0  0  0  0  0
    2.3280    0.0202   -0.0893 N   0  0  0  0  0  0  0  0  0  0  0  0
  1  2  2  0
  2  3  1  0
  3  4  2  0
  4  5  1  0
  5  6  2  0
  6  7  1  0
  6  1  1  0
M  END
>  <LigandName>  (6) 
Aniline

>  <SMILES>  (6) 
c1ccccc1N

>  <FieldStrength>  (6) 
moderate

>  <Delta_cm-1>  (6) 
21000

>  <DonorAtom>  (6) 
N

>  <Denticity>  (6) 
1

>  <DenticityDescription>  (6) 
monodentate

>  <MolecularWeight>  (6) 
93.13

>  <HDonors>  (6) 
1

>  <HAcceptors>  (6) 
1

>  <LogP>  (6) 
1.27

>  <NumAtoms>  (6) 
14

>  <NetFormalCharge>  (6) 
0

$$$$
ATP
     RDKit          3D

 31 33  0  0  1  0  0  0  0  0999 V2000
    1.2000   -0.2260   -6.8500 P   0  0  0  0  0  0  0  0  0  0  0  0
    1.7400    1.1400   -6.6720 O   0  0  0  0  0  0  0  0  0  0  0  0
    2.1230   -1.0360   -7.8910 O   0  0  0  0  0  0  0  0  0  0  0  0
   -0.3020   -0.1390   -7.4210 O   0  0  0  0  0  0  0  0  0  0  0  0
    0.2550   -0.1300   -4.4460 P   0  0  1  0  0  0  0  0  0  0  0  0
    0.8100    1.2340   -4.3040 O   0  0  0  0  0  0  0  0  0  0  0  0
   -1.2310   -0.0440   -5.0570 O   0  0  0  0  0  0  0  0  0  0  0  0
    1.1920   -0.9900   -5.4330 O   0  0  0  0  0  0  0  0  0  0  0  0
   -0.7450    0.0680   -2.0710 P   0  0  2  0  0  0  0  0  0  0  0  0
   -2.0970    0.1430   -2.6690 O   0  0  0  0  0  0  0  0  0  0  0  0
   -0.1250    1.5490   -1.9570 O   0  0  0  0  0  0  0  0  0  0  0  0
    0.2030   -0.8400   -3.0020 O   0  0  0  0  0  0  0  0  0  0  0  0
   -0.8440   -0.5870   -0.6040 O   0  0  0  0  0  0  0  0  0  0  0  0
   -1.6940    0.2600    0.1700 C   0  0  0  0  0  0  0  0  0  0  0  0
   -1.8310   -0.3090    1.5840 C   0  0  1  0  0  0  0  0  0  0  0  0
   -0.5420   -0.3550    2.2340 O   0  0  0  0  0  0  0  0  0  0  0  0
   -2.6830    0.6300    2.4650 C   0  0  1  0  0  0  0  0  0  0  0  0
   -4.0330    0.1650    2.5340 O   0  0  0  0  0  0  0  0  0  0  0  0
   -2.0110    0.5550    3.8560 C   0  0  1  0  0  0  0  0  0  0  0  0
   -2.9260    0.0430    4.8270 O   0  0  0  0  0  0  0  0  0  0  0  0
   -0.8300   -0.4180    3.6470 C   0  0  2  0  0  0  0  0  0  0  0  0
    0.3320    0.0150    4.4250 N   0  0  0  0  0  0  0  0  0  0  0  0
    1.3020    0.8790    4.0120 C   0  0  0  0  0  0  0  0  0  0  0  0
    2.1840    1.0420    4.9550 N   0  0  0  0  0  0  0  0  0  0  0  0
    1.8330    0.3000    6.0330 C   0  0  0  0  0  0  0  0  0  0  0  0
    2.3910    0.0770    7.3030 C   0  0  0  0  0  0  0  0  0  0  0  0
    3.5640    0.7060    7.6810 N   0  0  0  0  0  0  0  0  0  0  0  0
    1.7630   -0.7470    8.1350 N   0  0  0  0  0  0  0  0  0  0  0  0
    0.6440   -1.3520    7.7830 C   0  0  0  0  0  0  0  0  0  0  0  0
    0.0880   -1.1780    6.6020 N   0  0  0  0  0  0  0  0  0  0  0  0
    0.6440   -0.3710    5.7040 C   0  0  0  0  0  0  0  0  0  0  0  0
  1  2  2  0
  1  3  1  0
  1  4  1  0
  1  8  1  0
  5  6  2  0
  5  7  1  6
  5  8  1  0
  5 12  1  0
  9 10  2  0
  9 11  1  1
  9 12  1  0
  9 13  1  0
 13 14  1  0
 15 14  1  6
 15 16  1  0
 15 17  1  0
 16 21  1  0
 17 18  1  1
 17 19  1  0
 19 20  1  1
 19 21  1  0
 21 22  1  1
 22 23  1  0
 22 31  1  0
 23 24  2  0
 24 25  1  0
 25 26  2  0
 25 31  1  0
 26 27  1  0
 26 28  1  0
 28 29  2  0
 29 30  1  0
 30 31  2  0
M  END
>  <LigandName>  (7) 
ATP

>  <Denticity>  (7) 
4

>  <DenticityDescription>  (7) 
tetradentate

>  <Delta_cm-1>  (7) 
23071

>  <DeltaConfidence>  (7) 
estimated

>  <SMILES>  (7) 
[H]O[C@@]1([H])[C@@]([H])(O[H])[C@]([H])(n2c([H])nc3c(N([H])[H])nc([H])nc32)O[C@]1([H])C([H])([H])O[P@@](=O)(O[H])O[P@](=O)(O[H])OP(=O)(O[H])O[H]

>  <NetFormalCharge>  (7) 
0

$$$$
BA
     RDKit          2D

  1  0  0  0  0  0  0  0  0  0999 V2000
    0.0000    0.0000    0.0000 Ba  0  0  0  0  0 15  0  0  0  0  0  0
M  CHG  1   1   2
M  END
>  <LigandName>  (8) 
BA

>  <Denticity>  (8) 
1

>  <DenticityDescription>  (8) 
monodentate

>  <Delta_cm-1>  (8) 
20000

>  <DeltaConfidence>  (8) 
default

>  <SMILES>  (8) 
[Ba+2]

>  <NetFormalCharge>  (8) 
2

$$$$

     RDKit          3D

 12 13  0  0  0  0  0  0  0  0999 V2000
   -2.7299    0.9741   -1.0048 C   0  0  0  0  0  0  0  0  0  0  0  0
   -2.9081    2.0195   -0.1003 C   0  0  0  0  0  0  0  0  0  0  0  0
   -1.9231    2.2673    0.8544 C   0  0  0  0  0  0  0  0  0  0  0  0
   -0.8059    1.4940    0.8953 N   0  0  0  0  0  0  0  0  0  0  0  0
   -0.5951    0.4623    0.0279 C   0  0  0  0  0  0  0  0  0  0  0  0
   -1.5757    0.1892   -0.9486 C   0  0  0  0  0  0  0  0  0  0  0  0
    0.6633   -0.3203    0.1615 C   0  0  0  0  0  0  0  0  0  0  0  0
    0.9910   -1.4069   -0.6760 C   0  0  0  0  0  0  0  0  0  0  0  0
    2.1949   -2.0884   -0.4818 C   0  0  0  0  0  0  0  0  0  0  0  0
    3.0642   -1.6944    0.5340 C   0  0  0  0  0  0  0  0  0  0  0  0
    2.7154   -0.6172    1.3470 C   0  0  0  0  0  0  0  0  0  0  0  0
    1.5401    0.0350    1.1445 N   0  0  0  0  0  0  0  0  0  0  0  0
  1  2  2  0
  2  3  1  0
  3  4  2  0
  4  5  1  0
  5  6  2  0
  5  7  1  0
  7  8  2  0
  8  9  1  0
  9 10  2  0
 10 11  1  0
 11 12  2  0
  6  1  1  0
 12  7  1  0
M  END
>  <LigandName>  (9) 
bipy

>  <SMILES>  (9) 
c1ccnc(c1)c2ccccn2

>  <FieldStrength>  (9) 
strong

>  <Delta_cm-1>  (9) 
26000

>  <DonorAtom>  (9) 
N,N

>  <Denticity>  (9) 
2

>  <DenticityDescription>  (9) 
bidentate

>  <MolecularWeight>  (9) 
156.19

>  <HDonors>  (9) 
0

>  <HAcceptors>  (9) 
2

>  <LogP>  (9) 
2.14

>  <NumAtoms>  (9) 
20

>  <NetFormalCharge>  (9) 
0

$$$$
BMA
     RDKit          3D

 12 12  0  0  1  0  0  0  0  0999 V2000
   -1.4420   -0.5780   -0.5040 C   0  0  2  0  0  0  0  0  0  0  0  0
   -0.4930   -0.1940   -1.6420 C   0  0  2  0  0  0  0  0  0  0  0  0
    0.9450   -0.5150   -1.2230 C   0  0  2  0  0  0  0  0  0  0  0  0
    1.2270    0.1680    0.1190 C   0  0  1  0  0  0  0  0  0  0  0  0
    0.1490   -0.2440    1.1240 C   0  0  1  0  0  0  0  0  0  0  0  0
    0.4420    0.4050    2.4780 C   0  0  0  0  0  0  0  0  0  0  0  0
   -2.7890   -0.3110   -0.8990 O   0  0  0  0  0  0  0  0  0  0  0  0
   -0.6140    1.2020   -1.9150 O   0  0  0  0  0  0  0  0  0  0  0  0
    1.8530   -0.0270   -2.2130 O   0  0  0  0  0  0  0  0  0  0  0  0
    2.5100   -0.2350    0.6010 O   0  0  0  0  0  0  0  0  0  0  0  0
   -1.1300    0.1810    0.6610 O   0  0  0  0  0  0  0  0  0  0  0  0
   -0.5610    0.0180    3.4190 O   0  0  0  0  0  0  0  0  0  0  0  0
  1  2  1  0
  1  7  1  6
  1 11  1  0
  2  3  1  0
  2  8  1  1
  3  4  1  0
  3  9  1  6
  4  5  1  0
  4 10  1  1
  5  6  1  1
  5 11  1  0
  6 12  1  0
M  END
>  <LigandName>  (10) 
BMA

>  <Denticity>  (10) 
1

>  <DenticityDescription>  (10) 
monodentate

>  <Delta_cm-1>  (10) 
20000

>  <DeltaConfidence>  (10) 
estimated

>  <SMILES>  (10) 
[H]OC([H])([H])[C@@]1([H])O[C@@]([H])(O[H])[C@@]([H])(O[H])[C@@]([H])(O[H])[C@]1([H])O[H]

>  <NetFormalCharge>  (10) 
0

$$$$
BR
     RDKit          2D

  1  0  0  0  0  0  0  0  0  0999 V2000
    0.0000    0.0000    0.0000 Br  0  0  0  0  0  0  0  0  0  0  0  0
M  CHG  1   1  -1
M  END
>  <LigandName>  (11) 
BR

>  <Denticity>  (11) 
1

>  <DenticityDescription>  (11) 
monodentate

>  <Delta_cm-1>  (11) 
12000

>  <DeltaConfidence>  (11) 
estimated

>  <SMILES>  (11) 
[Br-]

>  <NetFormalCharge>  (11) 
-1

$$$$

     RDKit          3D

  1  0  0  0  0  0  0  0  0  0999 V2000
    4.0000    0.0000    0.0000 Br  0  0  0  0  0 15  0  0  0  0  0  0
M  CHG  1   1  -1
M  END
>  <LigandName>  (12) 
Br⁻

>  <SMILES>  (12) 
[Br-]

>  <FieldStrength>  (12) 
very weak

>  <Delta_cm-1>  (12) 
12000

>  <DonorAtom>  (12) 
Br

>  <Denticity>  (12) 
1

>  <DenticityDescription>  (12) 
monodentate

>  <MolecularWeight>  (12) 
79.9

>  <HDonors>  (12) 
0

>  <HAcceptors>  (12) 
0

>  <LogP>  (12) 
-3.0

>  <NumAtoms>  (12) 
1

>  <NetFormalCharge>  (12) 
-1

$$$$

     RDKit          3D

  6  5  0  0  0  0  0  0  0  0999 V2000
   -1.2123   -1.2556    0.0394 O   0  0  0  0  0  0  0  0  0  0  0  0
   -0.7263   -0.0947    0.0104 C   0  0  0  0  0  0  0  0  0  0  0  0
   -1.5750    1.0052   -0.0016 O   0  0  0  0  0  1  0  0  0  0  0  0
    0.7263    0.0947   -0.0104 C   0  0  0  0  0  0  0  0  0  0  0  0
    1.2123    1.2556   -0.0394 O   0  0  0  0  0  0  0  0  0  0  0  0
    1.5750   -1.0052    0.0016 O   0  0  0  0  0  1  0  0  0  0  0  0
  1  2  2  0
  2  3  1  0
  2  4  1  0
  4  5  2  0
  4  6  1  0
M  CHG  2   3  -1   6  -1
M  END
>  <LigandName>  (13) 
C₂O₄²⁻

>  <SMILES>  (13) 
O=C([O-])C(=O)[O-]

>  <FieldStrength>  (13) 
moderate

>  <Delta_cm-1>  (13) 
20000

>  <DonorAtom>  (13) 
O,O

>  <Denticity>  (13) 
2

>  <DenticityDescription>  (13) 
bidentate

>  <MolecularWeight>  (13) 
88.02

>  <HDonors>  (13) 
0

>  <HAcceptors>  (13) 
4

>  <LogP>  (13) 
-3.51

>  <NumAtoms>  (13) 
6

>  <NetFormalCharge>  (13) 
-2

$$$$
CA
     RDKit          2D

  1  0  0  0  0  0  0  0  0  0999 V2000
    0.0000    0.0000    0.0000 Ca  0  0  0  0  0 15  0  0  0  0  0  0
M  CHG  1   1   2
M  END
>  <LigandName>  (14) 
CA

>  <Denticity>  (14) 
1

>  <DenticityDescription>  (14) 
monodentate

>  <Delta_cm-1>  (14) 
20000

>  <DeltaConfidence>  (14) 
default

>  <SMILES>  (14) 
[Ca+2]

>  <NetFormalCharge>  (14) 
2

$$$$

     RDKit          3D

  1  0  0  0  0  0  0  0  0  0999 V2000
    0.0003    0.0011    0.2774 C   0  0  0  0  0  3  0  0  0  0  0  0
M  CHG  1   1  -1
M  END
>  <LigandName>  (15) 
CH₃⁻

>  <SMILES>  (15) 
[CH3-]

>  <FieldStrength>  (15) 
very strong

>  <Delta_cm-1>  (15) 
31000

>  <DonorAtom>  (15) 
C

>  <Denticity>  (15) 
1

>  <DenticityDescription>  (15) 
monodentate

>  <MolecularWeight>  (15) 
15.03

>  <HDonors>  (15) 
0

>  <HAcceptors>  (15) 
0

>  <LogP>  (15) 
0.45

>  <NumAtoms>  (15) 
4

>  <NetFormalCharge>  (15) 
-1

$$$$
CL
     RDKit          2D

  1  0  0  0  0  0  0  0  0  0999 V2000
    0.0000    0.0000    0.0000 Cl  0  0  0  0  0  0  0  0  0  0  0  0
M  CHG  1   1  -1
M  END
>  <LigandName>  (16) 
CL

>  <Denticity>  (16) 
1

>  <DenticityDescription>  (16) 
monodentate

>  <Delta_cm-1>  (16) 
12000

>  <DeltaConfidence>  (16) 
estimated

>  <SMILES>  (16) 
[Cl-]

>  <NetFormalCharge>  (16) 
-1

$$$$

     RDKit          3D

  1  0  0  0  0  0  0  0  0  0999 V2000
    4.0000    0.0000    0.0000 Cl  0  0  0  0  0 15  0  0  0  0  0  0
M  CHG  1   1  -1
M  END
>  <LigandName>  (17) 
Cl⁻

>  <SMILES>  (17) 
[Cl-]

>  <FieldStrength>  (17) 
weak

>  <Delta_cm-1>  (17) 
15000

>  <DonorAtom>  (17) 
Cl

>  <Denticity>  (17) 
1

>  <DenticityDescription>  (17) 
monodentate

>  <MolecularWeight>  (17) 
35.45

>  <HDonors>  (17) 
0

>  <HAcceptors>  (17) 
0

>  <LogP>  (17) 
-3.0

>  <NumAtoms>  (17) 
1

>  <NetFormalCharge>  (17) 
-1

$$$$

     RDKit          3D

  2  1  0  0  0  0  0  0  0  0999 V2000
    0.5786    0.0000    0.0000 C   0  0  0  0  0  3  0  0  0  0  0  0
   -0.5786    0.0000    0.0000 N   0  0  0  0  0  0  0  0  0  0  0  0
  1  2  3  0
M  CHG  1   1  -1
M  END
>  <LigandName>  (18) 
CN⁻

>  <SMILES>  (18) 
[C-]#N

>  <FieldStrength>  (18) 
very strong

>  <Delta_cm-1>  (18) 
30000

>  <DonorAtom>  (18) 
C

>  <Denticity>  (18) 
1

>  <DenticityDescription>  (18) 
monodentate

>  <MolecularWeight>  (18) 
26.02

>  <HDonors>  (18) 
0

>  <HAcceptors>  (18) 
1

>  <LogP>  (18) 
0.1

>  <NumAtoms>  (18) 
2

>  <NetFormalCharge>  (18) 
-1

$$$$

     RDKit          3D

  2  1  0  0  0  0  0  0  0  0999 V2000
    0.5641    0.0000    0.0000 C   0  0  0  0  0  3  0  0  0  0  0  0
   -0.5641    0.0000    0.0000 O   0  0  0  0  0  3  0  0  0  0  0  0
  1  2  3  0
M  CHG  2   1  -1   2   1
M  END
>  <LigandName>  (19) 
CO

>  <SMILES>  (19) 
[C-]#[O+]

>  <FieldStrength>  (19) 
very strong

>  <Delta_cm-1>  (19) 
32000

>  <DonorAtom>  (19) 
C

>  <Denticity>  (19) 
1

>  <DenticityDescription>  (19) 
monodentate

>  <MolecularWeight>  (19) 
28.01

>  <HDonors>  (19) 
0

>  <HAcceptors>  (19) 
0

>  <LogP>  (19) 
-0.04

>  <NumAtoms>  (19) 
2

>  <NetFormalCharge>  (19) 
0

$$$$
COA
     RDKit          3D

 48 50  0  0  1  0  0  0  0  0999 V2000
    5.3190    1.8440   -8.0480 N   0  0  0  0  0  0  0  0  0  0  0  0
    4.0990    1.8020   -8.5490 C   0  0  0  0  0  0  0  0  0  0  0  0
    3.0500    1.4650   -7.8290 N   0  0  0  0  0  0  0  0  0  0  0  0
    3.1840    1.1430   -6.5460 C   0  0  0  0  0  0  0  0  0  0  0  0
    4.4630    1.1770   -5.9640 C   0  0  0  0  0  0  0  0  0  0  0  0
    5.5510    1.5430   -6.7740 C   0  0  0  0  0  0  0  0  0  0  0  0
    6.8340    1.5900   -6.2580 N   0  0  0  0  0  0  0  0  0  0  0  0
    4.3200    0.8170   -4.6660 N   0  0  0  0  0  0  0  0  0  0  0  0
    3.0660    0.5750   -4.4190 C   0  0  0  0  0  0  0  0  0  0  0  0
    2.3240    0.7650   -5.5470 N   0  0  0  0  0  0  0  0  0  0  0  0
    0.8740    0.5920   -5.6710 C   0  0  1  0  0  0  0  0  0  0  0  0
    0.5220   -0.8870   -5.9720 C   0  0  2  0  0  0  0  0  0  0  0  0
    0.5740   -1.1480   -7.3760 O   0  0  0  0  0  0  0  0  0  0  0  0
   -0.9330   -0.9880   -5.4450 C   0  0  2  0  0  0  0  0  0  0  0  0
   -1.8640   -0.8460   -6.5190 O   0  0  0  0  0  0  0  0  0  0  0  0
   -2.7560   -2.1860   -6.5420 P   0  0  0  0  0  0  0  0  0  0  0  0
   -3.4630   -2.3310   -5.2500 O   0  0  0  0  0  0  0  0  0  0  0  0
   -3.8330   -2.0940   -7.7350 O   0  0  0  0  0  0  0  0  0  0  0  0
   -1.8020   -3.4620   -6.7770 O   0  0  0  0  0  0  0  0  0  0  0  0
   -1.0550    0.1880   -4.4570 C   0  0  2  0  0  0  0  0  0  0  0  0
    0.2230    0.8430   -4.4070 O   0  0  0  0  0  0  0  0  0  0  0  0
   -1.4260   -0.3350   -3.0680 C   0  0  0  0  0  0  0  0  0  0  0  0
   -1.5300    0.7600   -2.1580 O   0  0  0  0  0  0  0  0  0  0  0  0
   -1.9210    0.1400   -0.7240 P   0  0  2  0  0  0  0  0  0  0  0  0
   -0.8660   -0.8030   -0.2920 O   0  0  0  0  0  0  0  0  0  0  0  0
   -3.3240   -0.6400   -0.8420 O   0  0  0  0  0  0  0  0  0  0  0  0
   -2.0550    1.3260    0.3550 O   0  0  0  0  0  0  0  0  0  0  0  0
   -2.4450    0.6370    1.7570 P   0  0  1  0  0  0  0  0  0  0  0  0
   -3.7270   -0.0870    1.6110 O   0  0  0  0  0  0  0  0  0  0  0  0
   -1.2890   -0.3970    2.1860 O   0  0  0  0  0  0  0  0  0  0  0  0
   -2.5960    1.7720    2.8890 O   0  0  0  0  0  0  0  0  0  0  0  0
   -3.1010    2.1280    5.2250 C   0  0  0  0  0  0  0  0  0  0  0  0
   -2.9410    1.1010    4.1030 C   0  0  0  0  0  0  0  0  0  0  0  0
   -1.7840    2.8840    5.4160 C   0  0  0  0  0  0  0  0  0  0  0  0
   -4.2080    3.1180    4.8570 C   0  0  0  0  0  0  0  0  0  0  0  0
   -3.4700    1.4100    6.5250 C   0  0  1  0  0  0  0  0  0  0  0  0
   -4.7640    0.8190    6.3910 O   0  0  0  0  0  0  0  0  0  0  0  0
   -2.4530    0.3350    6.8110 C   0  0  0  0  0  0  0  0  0  0  0  0
   -2.7580   -0.8320    6.6990 O   0  0  0  0  0  0  0  0  0  0  0  0
   -1.2050    0.6720    7.1910 N   0  0  0  0  0  0  0  0  0  0  0  0
   -0.2400   -0.3700    7.5470 C   0  0  0  0  0  0  0  0  0  0  0  0
    1.0890    0.2750    7.9380 C   0  0  0  0  0  0  0  0  0  0  0  0
    2.0810   -0.7970    8.3050 C   0  0  0  0  0  0  0  0  0  0  0  0
    1.7560   -1.9650    8.2580 O   0  0  0  0  0  0  0  0  0  0  0  0
    3.3290   -0.4600    8.6850 N   0  0  0  0  0  0  0  0  0  0  0  0
    4.2940   -1.5040    9.0410 C   0  0  0  0  0  0  0  0  0  0  0  0
    5.6240   -0.8570    9.4320 C   0  0  0  0  0  0  0  0  0  0  0  0
    6.8180   -2.1500    9.8730 S   0  0  0  0  0  0  0  0  0  0  0  0
  1  2  2  0
  1  6  1  0
  2  3  1  0
  3  4  2  0
  4  5  1  0
  4 10  1  0
  5  6  2  0
  5  8  1  0
  6  7  1  0
  8  9  2  0
  9 10  1  0
 11 10  1  1
 11 12  1  0
 11 21  1  0
 12 13  1  6
 12 14  1  0
 14 15  1  6
 14 20  1  0
 15 16  1  0
 16 17  2  0
 16 18  1  0
 16 19  1  0
 20 21  1  0
 20 22  1  1
 22 23  1  0
 24 23  1  0
 24 25  2  0
 24 26  1  6
 24 27  1  0
 28 27  1  0
 28 29  2  0
 28 30  1  1
 28 31  1  0
 31 33  1  0
 32 33  1  0
 32 34  1  0
 32 35  1  0
 32 36  1  0
 36 37  1  6
 36 38  1  0
 38 39  2  0
 38 40  1  0
 40 41  1  0
 41 42  1  0
 42 43  1  0
 43 44  2  0
 43 45  1  0
 45 46  1  0
 46 47  1  0
 47 48  1  0
M  END
>  <LigandName>  (20) 
COA

>  <Denticity>  (20) 
4

>  <DenticityDescription>  (20) 
tetradentate

>  <Delta_cm-1>  (20) 
23071

>  <DeltaConfidence>  (20) 
estimated

>  <SMILES>  (20) 
[H]O[C@]1([H])[C@]([H])(OP(=O)(O[H])O[H])[C@@]([H])(C([H])([H])O[P@](=O)(O[H])O[P@@](=O)(O[H])OC([H])([H])C(C([H])([H])[H])(C([H])([H])[H])[C@@]([H])(O[H])C(=O)N([H])C([H])([H])C([H])([H])C(=O)N([H])C([H])([H])C([H])([H])S[H])O[C@@]1([H])n1c([H])nc2c(N([H])[H])nc([H])nc21

>  <NetFormalCharge>  (20) 
0

$$$$
CS
     RDKit          2D

  1  0  0  0  0  0  0  0  0  0999 V2000
    0.0000    0.0000    0.0000 Cs  0  0  0  0  0 15  0  0  0  0  0  0
M  CHG  1   1   1
M  END
>  <LigandName>  (21) 
CS

>  <Denticity>  (21) 
1

>  <DenticityDescription>  (21) 
monodentate

>  <Delta_cm-1>  (21) 
20000

>  <DeltaConfidence>  (21) 
default

>  <SMILES>  (21) 
[Cs+]

>  <NetFormalCharge>  (21) 
1

$$$$
CU
     RDKit          2D

  1  0  0  0  0  0  0  0  0  0999 V2000
    0.0000    0.0000    0.0000 Cu  0  0  0  0  0 15  0  0  0  0  0  0
M  CHG  1   1   2
M  END
>  <LigandName>  (22) 
CU

>  <Denticity>  (22) 
1

>  <DenticityDescription>  (22) 
monodentate

>  <Delta_cm-1>  (22) 
20000

>  <DeltaConfidence>  (22) 
default

>  <SMILES>  (22) 
[Cu+2]

>  <NetFormalCharge>  (22) 
2

$$$$

     RDKit          3D

  5  4  0  0  0  0  0  0  0  0999 V2000
   -1.0318   -0.9253   -0.2411 C   0  0  0  0  0  0  0  0  0  0  0  0
    0.0969   -0.0369    0.0468 N   0  0  0  0  0  0  0  0  0  0  0  0
    0.0335    1.3927   -0.2582 C   0  0  0  0  0  0  0  0  0  0  0  0
    1.2940   -0.5616    0.6386 C   0  0  0  0  0  0  0  0  0  0  0  0
    1.3927   -1.7863    0.9180 O   0  0  0  0  0  0  0  0  0  0  0  0
  1  2  1  0
  2  3  1  0
  2  4  1  0
  4  5  2  0
M  END
>  <LigandName>  (23) 
DMF

>  <SMILES>  (23) 
CN(C)C=O

>  <FieldStrength>  (23) 
moderate-strong

>  <Delta_cm-1>  (23) 
22000

>  <DonorAtom>  (23) 
O

>  <Denticity>  (23) 
1

>  <DenticityDescription>  (23) 
monodentate

>  <MolecularWeight>  (23) 
73.09

>  <HDonors>  (23) 
0

>  <HAcceptors>  (23) 
1

>  <LogP>  (23) 
-0.3

>  <NumAtoms>  (23) 
12

>  <NetFormalCharge>  (23) 
0

$$$$
DMS
     RDKit          3D

  4  3  0  0  0  0  0  0  0  0999 V2000
    0.1540   -0.3710    0.0000 S   0  0  0  0  0  0  0  0  0  0  0  0
    1.3900    0.3310    0.0010 O   0  0  0  0  0  0  0  0  0  0  0  0
   -0.8640    0.1960    1.3890 C   0  0  0  0  0  0  0  0  0  0  0  0
   -0.8620    0.1960   -1.3900 C   0  0  0  0  0  0  0  0  0  0  0  0
  1  2  2  0
  1  3  1  0
  1  4  1  0
M  END
>  <LigandName>  (24) 
DMS

>  <Denticity>  (24) 
1

>  <DenticityDescription>  (24) 
monodentate

>  <Delta_cm-1>  (24) 
18000

>  <DeltaConfidence>  (24) 
estimated

>  <SMILES>  (24) 
[H]C([H])([H])S(=O)C([H])([H])[H]

>  <NetFormalCharge>  (24) 
0

$$$$

     RDKit          3D

  4  3  0  0  0  0  0  0  0  0999 V2000
   -1.4200   -0.1040    0.0402 C   0  0  0  0  0  0  0  0  0  0  0  0
    0.1461    0.5203    0.6757 S   0  0  0  0  0  0  0  0  0  0  0  0
    0.1774    1.9641    0.1928 O   0  0  0  0  0  0  0  0  0  0  0  0
    1.3889   -0.2933   -0.3440 C   0  0  0  0  0  0  0  0  0  0  0  0
  1  2  1  0
  2  3  2  0
  2  4  1  0
M  END
>  <LigandName>  (25) 
DMSO

>  <SMILES>  (25) 
CS(=O)C

>  <FieldStrength>  (25) 
moderate

>  <Delta_cm-1>  (25) 
21000

>  <DonorAtom>  (25) 
S

>  <Denticity>  (25) 
1

>  <DenticityDescription>  (25) 
monodentate

>  <MolecularWeight>  (25) 
78.14

>  <HDonors>  (25) 
0

>  <HAcceptors>  (25) 
1

>  <LogP>  (25) 
-0.01

>  <NumAtoms>  (25) 
10

>  <NetFormalCharge>  (25) 
0

$$$$
EDO
     RDKit          3D

  4  3  0  0  0  0  0  0  0  0999 V2000
   -0.6090   -0.2820    0.7100 C   0  0  0  0  0  0  0  0  0  0  0  0
    0.5570    0.1670    1.4020 O   0  0  0  0  0  0  0  0  0  0  0  0
   -0.6090    0.2820   -0.7100 C   0  0  0  0  0  0  0  0  0  0  0  0
    0.5570   -0.1670   -1.4020 O   0  0  0  0  0  0  0  0  0  0  0  0
  1  2  1  0
  1  3  1  0
  3  4  1  0
M  END
>  <LigandName>  (26) 
EDO

>  <Denticity>  (26) 
2

>  <DenticityDescription>  (26) 
bidentate

>  <Delta_cm-1>  (26) 
20000

>  <DeltaConfidence>  (26) 
estimated

>  <SMILES>  (26) 
[H]OC([H])([H])C([H])([H])O[H]

>  <NetFormalCharge>  (26) 
0

$$$$

     RDKit          3D

  4  3  0  0  0  0  0  0  0  0999 V2000
    1.3774    0.7652    0.1347 N   0  0  0  0  0  0  0  0  0  0  0  0
    0.7336   -0.5379   -0.0047 C   0  0  0  0  0  0  0  0  0  0  0  0
   -0.7810   -0.4173    0.1767 C   0  0  0  0  0  0  0  0  0  0  0  0
   -1.3667    0.3809   -0.8968 N   0  0  0  0  0  0  0  0  0  0  0  0
  1  2  1  0
  2  3  1  0
  3  4  1  0
M  END
>  <LigandName>  (27) 
en

>  <SMILES>  (27) 
NCCN

>  <FieldStrength>  (27) 
moderate-strong

>  <Delta_cm-1>  (27) 
25000

>  <DonorAtom>  (27) 
N,N

>  <Denticity>  (27) 
2

>  <DenticityDescription>  (27) 
bidentate

>  <MolecularWeight>  (27) 
60.1

>  <HDonors>  (27) 
2

>  <HAcceptors>  (27) 
2

>  <LogP>  (27) 
-1.1

>  <NumAtoms>  (27) 
12

>  <NetFormalCharge>  (27) 
0

$$$$

     RDKit          3D

  3  2  0  0  0  0  0  0  0  0999 V2000
    0.9270    0.0231   -0.0547 C   0  0  0  0  0  0  0  0  0  0  0  0
   -0.5372   -0.3937    0.0093 C   0  0  0  0  0  0  0  0  0  0  0  0
   -1.3604    0.6453   -0.4456 O   0  0  0  0  0  0  0  0  0  0  0  0
  1  2  1  0
  2  3  1  0
M  END
>  <LigandName>  (28) 
EtOH

>  <SMILES>  (28) 
CCO

>  <FieldStrength>  (28) 
moderate

>  <Delta_cm-1>  (28) 
20000

>  <DonorAtom>  (28) 
O

>  <Denticity>  (28) 
1

>  <DenticityDescription>  (28) 
monodentate

>  <MolecularWeight>  (28) 
46.07

>  <HDonors>  (28) 
1

>  <HAcceptors>  (28) 
1

>  <LogP>  (28) 
-0.0

>  <NumAtoms>  (28) 
9

>  <NetFormalCharge>  (28) 
0

$$$$
FAD
     RDKit          3D

 53 58  0  0  1  0  0  0  0  0999 V2000
   -1.6480   -0.6290   -3.2290 P   0  0  1  0  0  0  0  0  0  0  0  0
   -3.0350   -1.0880   -2.9920 O   0  0  0  0  0  0  0  0  0  0  0  0
   -0.6780   -1.9060   -3.3780 O   0  0  0  0  0  0  0  0  0  0  0  0
   -1.5950    0.2450   -4.5800 O   0  0  0  0  0  0  0  0  0  0  0  0
   -2.0360   -0.6050   -5.6400 C   0  0  0  0  0  0  0  0  0  0  0  0
   -2.0090    0.1690   -6.9590 C   0  0  1  0  0  0  0  0  0  0  0  0
   -0.6650    0.5830   -7.2560 O   0  0  0  0  0  0  0  0  0  0  0  0
   -2.4760   -0.7410   -8.1110 C   0  0  1  0  0  0  0  0  0  0  0  0
   -3.6390   -0.2030   -8.7440 O   0  0  0  0  0  0  0  0  0  0  0  0
   -1.2770   -0.7480   -9.0950 C   0  0  1  0  0  0  0  0  0  0  0  0
   -1.7280   -0.6720  -10.4490 O   0  0  0  0  0  0  0  0  0  0  0  0
   -0.5180    0.5410   -8.6920 C   0  0  2  0  0  0  0  0  0  0  0  0
    0.8950    0.4490   -9.0630 N   0  0  0  0  0  0  0  0  0  0  0  0
    1.8890   -0.1180   -8.3220 C   0  0  0  0  0  0  0  0  0  0  0  0
    3.0230   -0.0240   -8.9530 N   0  0  0  0  0  0  0  0  0  0  0  0
    2.8300    0.6060  -10.1360 C   0  0  0  0  0  0  0  0  0  0  0  0
    3.6630    0.9790  -11.2050 C   0  0  0  0  0  0  0  0  0  0  0  0
    5.0180    0.6980  -11.1780 N   0  0  0  0  0  0  0  0  0  0  0  0
    3.1190    1.6070  -12.2420 N   0  0  0  0  0  0  0  0  0  0  0  0
    1.8270    1.8780  -12.2770 C   0  0  0  0  0  0  0  0  0  0  0  0
    1.0100    1.5490  -11.2990 N   0  0  0  0  0  0  0  0  0  0  0  0
    1.4620    0.9140  -10.2230 C   0  0  0  0  0  0  0  0  0  0  0  0
   -1.9330    0.3600    8.3210 N   0  0  0  0  0  0  0  0  0  0  0  0
   -2.8020    1.0330    9.0700 C   0  0  0  0  0  0  0  0  0  0  0  0
   -3.9700    1.0430    8.7210 O   0  0  0  0  0  0  0  0  0  0  0  0
   -2.4740    1.7010   10.1850 N   0  0  0  0  0  0  0  0  0  0  0  0
   -1.1970    1.7340   10.6340 C   0  0  0  0  0  0  0  0  0  0  0  0
   -0.8970    2.3400   11.6440 O   0  0  0  0  0  0  0  0  0  0  0  0
   -0.1840    1.0030    9.8420 C   0  0  0  0  0  0  0  0  0  0  0  0
    1.0780    0.9680   10.1850 N   0  0  0  0  0  0  0  0  0  0  0  0
    1.9690    0.2950    9.4460 C   0  0  0  0  0  0  0  0  0  0  0  0
    3.3240    0.2700    9.8330 C   0  0  0  0  0  0  0  0  0  0  0  0
    4.2320   -0.4120    9.0820 C   0  0  0  0  0  0  0  0  0  0  0  0
    5.6790   -0.4340    9.5020 C   0  0  0  0  0  0  0  0  0  0  0  0
    3.8410   -1.0850    7.9300 C   0  0  0  0  0  0  0  0  0  0  0  0
    4.8660   -1.8320    7.1160 C   0  0  0  0  0  0  0  0  0  0  0  0
    2.5230   -1.0820    7.5290 C   0  0  0  0  0  0  0  0  0  0  0  0
    1.5720   -0.3930    8.2780 C   0  0  0  0  0  0  0  0  0  0  0  0
    0.2530   -0.3820    7.8770 N   0  0  0  0  0  0  0  0  0  0  0  0
   -0.6490    0.3010    8.6340 C   0  0  0  0  0  0  0  0  0  0  0  0
   -0.1680   -1.0930    6.6680 C   0  0  0  0  0  0  0  0  0  0  0  0
   -0.0700   -0.1530    5.4640 C   0  0  2  0  0  0  0  0  0  0  0  0
   -0.9190    0.9770    5.6730 O   0  0  0  0  0  0  0  0  0  0  0  0
   -0.5110   -0.8950    4.2010 C   0  0  2  0  0  0  0  0  0  0  0  0
    0.3370   -2.0260    3.9920 O   0  0  0  0  0  0  0  0  0  0  0  0
   -0.4130    0.0440    2.9970 C   0  0  2  0  0  0  0  0  0  0  0  0
   -1.2620    1.1740    3.2060 O   0  0  0  0  0  0  0  0  0  0  0  0
   -0.8540   -0.6970    1.7340 C   0  0  0  0  0  0  0  0  0  0  0  0
   -0.7630    0.1790    0.6100 O   0  0  0  0  0  0  0  0  0  0  0  0
   -1.2390   -0.6620   -0.6770 P   0  0  1  0  0  0  0  0  0  0  0  0
   -0.3540   -1.8350   -0.8530 O   0  0  0  0  0  0  0  0  0  0  0  0
   -2.7540   -1.1600   -0.4620 O   0  0  0  0  0  0  0  0  0  0  0  0
   -1.1610    0.2700   -1.9870 O   0  0  0  0  0  0  0  0  0  0  0  0
  1  2  2  0
  1  3  1  6
  1  4  1  0
  1 53  1  0
  4  5  1  0
  6  5  1  1
  6  7  1  0
  6  8  1  0
  7 12  1  0
  8  9  1  6
  8 10  1  0
 10 11  1  6
 10 12  1  0
 12 13  1  1
 13 14  1  0
 13 22  1  0
 14 15  2  0
 15 16  1  0
 16 17  2  0
 16 22  1  0
 17 18  1  0
 17 19  1  0
 19 20  2  0
 20 21  1  0
 21 22  2  0
 23 24  1  0
 23 40  2  0
 24 25  2  0
 24 26  1  0
 26 27  1  0
 27 28  2  0
 27 29  1  0
 29 30  2  0
 29 40  1  0
 30 31  1  0
 31 32  1  0
 31 38  2  0
 32 33  2  0
 33 34  1  0
 33 35  1  0
 35 36  1  0
 35 37  2  0
 37 38  1  0
 38 39  1  0
 39 40  1  0
 39 41  1  0
 41 42  1  0
 42 43  1  1
 42 44  1  0
 44 45  1  6
 44 46  1  0
 46 47  1  1
 46 48  1  0
 48 49  1  0
 50 49  1  0
 50 51  2  0
 50 52  1  1
 50 53  1  0
M  END
>  <LigandName>  (29) 
FAD

>  <Denticity>  (29) 
4

>  <DenticityDescription>  (29) 
tetradentate

>  <Delta_cm-1>  (29) 
22833

>  <DeltaConfidence>  (29) 
estimated

>  <SMILES>  (29) 
[H]O[C@@]1([H])[C@@]([H])(O[H])[C@]([H])(n2c([H])nc3c(N([H])[H])nc([H])nc32)O[C@]1([H])C([H])([H])O[P@@](=O)(O[H])O[P@](=O)(O[H])OC([H])([H])[C@@]([H])(O[H])[C@@]([H])(O[H])[C@@]([H])(O[H])C([H])([H])n1c2nc(=O)n([H])c(=O)c-2nc2c([H])c(C([H])([H])[H])c(C([H])([H])[H])c([H])c21

>  <NetFormalCharge>  (29) 
0

$$$$
FE
     RDKit          2D

  1  0  0  0  0  0  0  0  0  0999 V2000
    0.0000    0.0000    0.0000 Fe  0  0  0  0  0 15  0  0  0  0  0  0
M  CHG  1   1   3
M  END
>  <LigandName>  (30) 
FE

>  <Denticity>  (30) 
1

>  <DenticityDescription>  (30) 
monodentate

>  <Delta_cm-1>  (30) 
20000

>  <DeltaConfidence>  (30) 
default

>  <SMILES>  (30) 
[Fe+3]

>  <NetFormalCharge>  (30) 
3

$$$$

     RDKit          3D

  1  0  0  0  0  0  0  0  0  0999 V2000
    4.0000    0.0000    0.0000 F   0  0  0  0  0 15  0  0  0  0  0  0
M  CHG  1   1  -1
M  END
>  <LigandName>  (31) 
F⁻

>  <SMILES>  (31) 
[F-]

>  <FieldStrength>  (31) 
weak

>  <Delta_cm-1>  (31) 
18000

>  <DonorAtom>  (31) 
F

>  <Denticity>  (31) 
1

>  <DenticityDescription>  (31) 
monodentate

>  <MolecularWeight>  (31) 
19.0

>  <HDonors>  (31) 
0

>  <HAcceptors>  (31) 
0

>  <LogP>  (31) 
-3.0

>  <NumAtoms>  (31) 
1

>  <NetFormalCharge>  (31) 
-1

$$$$
FMN
     RDKit          3D

 31 33  0  0  1  0  0  0  0  0999 V2000
    2.1180   -2.4930    0.5310 N   0  0  0  0  0  0  0  0  0  0  0  0
    2.7130   -3.6380    0.2060 C   0  0  0  0  0  0  0  0  0  0  0  0
    2.1220   -4.6770    0.4450 O   0  0  0  0  0  0  0  0  0  0  0  0
    3.9210   -3.7210   -0.3680 N   0  0  0  0  0  0  0  0  0  0  0  0
    4.6360   -2.6100   -0.6640 C   0  0  0  0  0  0  0  0  0  0  0  0
    5.7320   -2.6820   -1.1850 O   0  0  0  0  0  0  0  0  0  0  0  0
    4.0270   -1.3050   -0.3250 C   0  0  0  0  0  0  0  0  0  0  0  0
    4.6310   -0.1700   -0.5660 N   0  0  0  0  0  0  0  0  0  0  0  0
    4.0510    0.9950   -0.2460 C   0  0  0  0  0  0  0  0  0  0  0  0
    4.7180    2.2060   -0.5140 C   0  0  0  0  0  0  0  0  0  0  0  0
    4.1310    3.3920   -0.1900 C   0  0  0  0  0  0  0  0  0  0  0  0
    4.8500    4.6830   -0.4800 C   0  0  0  0  0  0  0  0  0  0  0  0
    2.8740    3.4230    0.4050 C   0  0  0  0  0  0  0  0  0  0  0  0
    2.2460    4.7480    0.7520 C   0  0  0  0  0  0  0  0  0  0  0  0
    2.1970    2.2550    0.6780 C   0  0  0  0  0  0  0  0  0  0  0  0
    2.7740    1.0290    0.3590 C   0  0  0  0  0  0  0  0  0  0  0  0
    2.1010   -0.1440    0.6310 N   0  0  0  0  0  0  0  0  0  0  0  0
    2.6950   -1.3250    0.3040 C   0  0  0  0  0  0  0  0  0  0  0  0
    0.7770   -0.1190    1.2580 C   0  0  0  0  0  0  0  0  0  0  0  0
   -0.3000   -0.0600    0.1730 C   0  0  2  0  0  0  0  0  0  0  0  0
   -0.1220    1.1210   -0.6110 O   0  0  0  0  0  0  0  0  0  0  0  0
   -1.6830   -0.0350    0.8270 C   0  0  2  0  0  0  0  0  0  0  0  0
   -1.8600   -1.2170    1.6110 O   0  0  0  0  0  0  0  0  0  0  0  0
   -2.7600    0.0240   -0.2580 C   0  0  2  0  0  0  0  0  0  0  0  0
   -2.5820    1.2060   -1.0420 O   0  0  0  0  0  0  0  0  0  0  0  0
   -4.1420    0.0490    0.3970 C   0  0  0  0  0  0  0  0  0  0  0  0
   -5.1490   -0.0130   -0.6150 O   0  0  0  0  0  0  0  0  0  0  0  0
   -6.7250   -0.0070   -0.2850 P   0  0  0  0  0  0  0  0  0  0  0  0
   -7.0530    1.1800    0.5360 O   0  0  0  0  0  0  0  0  0  0  0  0
   -7.5610    0.0450   -1.6600 O   0  0  0  0  0  0  0  0  0  0  0  0
   -7.1090   -1.3440    0.5260 O   0  0  0  0  0  0  0  0  0  0  0  0
  1  2  1  0
  1 18  2  0
  2  3  2  0
  2  4  1  0
  4  5  1  0
  5  6  2  0
  5  7  1  0
  7  8  2  0
  7 18  1  0
  8  9  1  0
  9 10  1  0
  9 16  2  0
 10 11  2  0
 11 12  1  0
 11 13  1  0
 13 14  1  0
 13 15  2  0
 15 16  1  0
 16 17  1  0
 17 18  1  0
 17 19  1  0
 19 20  1  0
 20 21  1  1
 20 22  1  0
 22 23  1  6
 22 24  1  0
 24 25  1  1
 24 26  1  0
 26 27  1  0
 27 28  1  0
 28 29  2  0
 28 30  1  0
 28 31  1  0
M  END
>  <LigandName>  (32) 
FMN

>  <Denticity>  (32) 
3

>  <DenticityDescription>  (32) 
tridentate

>  <Delta_cm-1>  (32) 
22400

>  <DeltaConfidence>  (32) 
estimated

>  <SMILES>  (32) 
[H]O[C@@]([H])([C@@]([H])(O[H])C([H])([H])n1c2nc(=O)n([H])c(=O)c-2nc2c([H])c(C([H])([H])[H])c(C([H])([H])[H])c([H])c21)[C@]([H])(O[H])C([H])([H])OP(=O)(O[H])O[H]

>  <NetFormalCharge>  (32) 
0

$$$$

     RDKit          3D

  3  2  0  0  0  0  0  0  0  0999 V2000
   -0.0406    0.0519   -0.0011 C   0  0  0  0  0  0  0  0  0  0  0  0
   -0.9001   -0.8174    0.2954 O   0  0  0  0  0  0  0  0  0  0  0  0
    1.2407   -0.3358   -0.3681 O   0  0  0  0  0  1  0  0  0  0  0  0
  1  2  2  0
  1  3  1  0
M  CHG  1   3  -1
M  END
>  <LigandName>  (33) 
Formate

>  <SMILES>  (33) 
C(=O)[O-]

>  <FieldStrength>  (33) 
moderate

>  <Delta_cm-1>  (33) 
20000

>  <DonorAtom>  (33) 
O

>  <Denticity>  (33) 
1

>  <DenticityDescription>  (33) 
monodentate

>  <MolecularWeight>  (33) 
45.02

>  <HDonors>  (33) 
0

>  <HAcceptors>  (33) 
2

>  <LogP>  (33) 
-1.63

>  <NumAtoms>  (33) 
4

>  <NetFormalCharge>  (33) 
-1

$$$$
FUC
     RDKit          3D

 11 11  0  0  1  0  0  0  0  0999 V2000
    1.4100    0.4680   -0.4100 C   0  0  2  0  0  0  0  0  0  0  0  0
    0.1200    0.5130   -1.2330 C   0  0  2  0  0  0  0  0  0  0  0  0
   -0.8310   -0.5760   -0.7280 C   0  0  1  0  0  0  0  0  0  0  0  0
   -1.0160   -0.4020    0.7830 C   0  0  1  0  0  0  0  0  0  0  0  0
    0.3590   -0.3790    1.4540 C   0  0  2  0  0  0  0  0  0  0  0  0
    0.1850   -0.2410    2.9670 C   0  0  0  0  0  0  0  0  0  0  0  0
    2.0070   -0.8230   -0.5350 O   0  0  0  0  0  0  0  0  0  0  0  0
    0.4240    0.2840   -2.6100 O   0  0  0  0  0  0  0  0  0  0  0  0
   -2.0940   -0.4520   -1.3850 O   0  0  0  0  0  0  0  0  0  0  0  0
   -1.7000    0.8240    1.0440 O   0  0  0  0  0  0  0  0  0  0  0  0
    1.1160    0.7240    0.9610 O   0  0  0  0  0  0  0  0  0  0  0  0
  1  2  1  0
  1  7  1  1
  1 11  1  0
  2  3  1  0
  2  8  1  6
  3  4  1  0
  3  9  1  6
  4  5  1  0
  4 10  1  6
  5  6  1  1
  5 11  1  0
M  END
>  <LigandName>  (34) 
FUC

>  <Denticity>  (34) 
1

>  <DenticityDescription>  (34) 
monodentate

>  <Delta_cm-1>  (34) 
20000

>  <DeltaConfidence>  (34) 
estimated

>  <SMILES>  (34) 
[H]O[C@]1([H])O[C@@]([H])(C([H])([H])[H])[C@@]([H])(O[H])[C@@]([H])(O[H])[C@]1([H])O[H]

>  <NetFormalCharge>  (34) 
0

$$$$
GAL
     RDKit          3D

 12 12  0  0  1  0  0  0  0  0999 V2000
    0.5160    1.4090   -0.1910 C   0  0  2  0  0  0  0  0  0  0  0  0
    1.5220    0.3020    0.1360 C   0  0  1  0  0  0  0  0  0  0  0  0
    1.1030   -0.9860   -0.5780 C   0  0  2  0  0  0  0  0  0  0  0  0
   -0.3220   -1.3520   -0.1520 C   0  0  2  0  0  0  0  0  0  0  0  0
   -1.2580   -0.1820   -0.4680 C   0  0  1  0  0  0  0  0  0  0  0  0
   -2.6720   -0.5160    0.0090 C   0  0  0  0  0  0  0  0  0  0  0  0
    0.8700    2.5990    0.5170 O   0  0  0  0  0  0  0  0  0  0  0  0
    2.8230    0.6930   -0.3080 O   0  0  0  0  0  0  0  0  0  0  0  0
    1.9950   -2.0440   -0.2200 O   0  0  0  0  0  0  0  0  0  0  0  0
   -0.3480   -1.6180    1.2510 O   0  0  0  0  0  0  0  0  0  0  0  0
   -0.7930    0.9920    0.2020 O   0  0  0  0  0  0  0  0  0  0  0  0
   -3.5670    0.5250   -0.3890 O   0  0  0  0  0  0  0  0  0  0  0  0
  1  2  1  0
  1  7  1  1
  1 11  1  0
  2  3  1  0
  2  8  1  6
  3  4  1  0
  3  9  1  1
  4  5  1  0
  4 10  1  1
  5  6  1  1
  5 11  1  0
  6 12  1  0
M  END
>  <LigandName>  (35) 
GAL

>  <Denticity>  (35) 
1

>  <DenticityDescription>  (35) 
monodentate

>  <Delta_cm-1>  (35) 
20000

>  <DeltaConfidence>  (35) 
estimated

>  <SMILES>  (35) 
[H]OC([H])([H])[C@@]1([H])O[C@@]([H])(O[H])[C@]([H])(O[H])[C@@]([H])(O[H])[C@@]1([H])O[H]

>  <NetFormalCharge>  (35) 
0

$$$$
GDP
     RDKit          3D

 28 30  0  0  1  0  0  0  0  0999 V2000
   -5.7430   -1.4710    0.4750 P   0  0  0  0  0  0  0  0  0  0  0  0
   -6.8290   -0.8310   -0.3000 O   0  0  0  0  0  0  0  0  0  0  0  0
   -6.2930   -1.8850    1.9300 O   0  0  0  0  0  0  0  0  0  0  0  0
   -5.2340   -2.7870   -0.3010 O   0  0  0  0  0  0  0  0  0  0  0  0
   -4.5190   -0.4380    0.6380 O   0  0  0  0  0  0  0  0  0  0  0  0
   -3.8210    0.6330   -0.3400 P   0  0  1  0  0  0  0  0  0  0  0  0
   -3.7180    0.0630   -1.7020 O   0  0  0  0  0  0  0  0  0  0  0  0
   -4.7080    1.9760   -0.3860 O   0  0  0  0  0  0  0  0  0  0  0  0
   -2.3480    0.9810    0.2080 O   0  0  0  0  0  0  0  0  0  0  0  0
   -1.4340    1.8230   -0.4970 C   0  0  0  0  0  0  0  0  0  0  0  0
   -0.1330    1.9430    0.2990 C   0  0  1  0  0  0  0  0  0  0  0  0
    0.5330    0.6700    0.3440 O   0  0  0  0  0  0  0  0  0  0  0  0
    0.8200    2.9330   -0.3990 C   0  0  1  0  0  0  0  0  0  0  0  0
    1.1250    4.0280    0.4670 O   0  0  0  0  0  0  0  0  0  0  0  0
    2.0910    2.0980   -0.6860 C   0  0  1  0  0  0  0  0  0  0  0  0
    3.2710    2.8610   -0.4280 O   0  0  0  0  0  0  0  0  0  0  0  0
    1.9520    0.9350    0.3290 C   0  0  2  0  0  0  0  0  0  0  0  0
    2.6910   -0.2430   -0.1320 N   0  0  0  0  0  0  0  0  0  0  0  0
    2.2000   -1.2520   -0.9080 C   0  0  0  0  0  0  0  0  0  0  0  0
    3.1310   -2.1340   -1.1250 N   0  0  0  0  0  0  0  0  0  0  0  0
    4.2720   -1.7460   -0.5040 C   0  0  0  0  0  0  0  0  0  0  0  0
    5.5710   -2.2950   -0.3960 C   0  0  0  0  0  0  0  0  0  0  0  0
    5.8500   -3.3500   -0.9390 O   0  0  0  0  0  0  0  0  0  0  0  0
    6.4950   -1.6200    0.3240 N   0  0  0  0  0  0  0  0  0  0  0  0
    6.1710   -0.4410    0.9270 C   0  0  0  0  0  0  0  0  0  0  0  0
    7.1300    0.2220    1.6510 N   0  0  0  0  0  0  0  0  0  0  0  0
    4.9680    0.0790    0.8340 N   0  0  0  0  0  0  0  0  0  0  0  0
    4.0030   -0.5290    0.1330 C   0  0  0  0  0  0  0  0  0  0  0  0
  1  2  2  0
  1  3  1  0
  1  4  1  0
  1  5  1  0
  6  5  1  0
  6  7  2  0
  6  8  1  6
  6  9  1  0
  9 10  1  0
 11 10  1  6
 11 12  1  0
 11 13  1  0
 12 17  1  0
 13 14  1  1
 13 15  1  0
 15 16  1  1
 15 17  1  0
 17 18  1  6
 18 19  1  0
 18 28  1  0
 19 20  2  0
 20 21  1  0
 21 22  1  0
 21 28  2  0
 22 23  2  0
 22 24  1  0
 24 25  1  0
 25 26  1  0
 25 27  2  0
 27 28  1  0
M  END
>  <LigandName>  (36) 
GDP

>  <Denticity>  (36) 
2

>  <DenticityDescription>  (36) 
bidentate

>  <Delta_cm-1>  (36) 
22916

>  <DeltaConfidence>  (36) 
estimated

>  <SMILES>  (36) 
[H]O[C@@]1([H])[C@@]([H])(O[H])[C@]([H])(n2c([H])nc3c(=O)n([H])c(N([H])[H])nc32)O[C@]1([H])C([H])([H])O[P@](=O)(O[H])OP(=O)(O[H])O[H]

>  <NetFormalCharge>  (36) 
0

$$$$
GLC
     RDKit          3D

 12 12  0  0  1  0  0  0  0  0999 V2000
   -0.5670    1.5720   -0.2450 C   0  0  1  0  0  0  0  0  0  0  0  0
   -1.5780    0.4650   -0.5540 C   0  0  1  0  0  0  0  0  0  0  0  0
   -1.1790   -0.8060    0.2030 C   0  0  2  0  0  0  0  0  0  0  0  0
    0.2490   -1.1950   -0.1920 C   0  0  1  0  0  0  0  0  0  0  0  0
    1.1890   -0.0240    0.1020 C   0  0  1  0  0  0  0  0  0  0  0  0
    2.6070   -0.3830   -0.3450 C   0  0  0  0  0  0  0  0  0  0  0  0
   -0.6000    1.8710    1.1510 O   0  0  0  0  0  0  0  0  0  0  0  0
   -2.8810    0.8790   -0.1390 O   0  0  0  0  0  0  0  0  0  0  0  0
   -2.0750   -1.8660   -0.1370 O   0  0  0  0  0  0  0  0  0  0  0  0
    0.6580   -2.3380    0.5620 O   0  0  0  0  0  0  0  0  0  0  0  0
    0.7440    1.1330   -0.6080 O   0  0  0  0  0  0  0  0  0  0  0  0
    3.5060    0.6610    0.0350 O   0  0  0  0  0  0  0  0  0  0  0  0
  1  2  1  0
  1  7  1  1
  1 11  1  0
  2  3  1  0
  2  8  1  1
  3  4  1  0
  3  9  1  6
  4  5  1  0
  4 10  1  1
  5  6  1  6
  5 11  1  0
  6 12  1  0
M  END
>  <LigandName>  (37) 
GLC

>  <Denticity>  (37) 
1

>  <DenticityDescription>  (37) 
monodentate

>  <Delta_cm-1>  (37) 
20000

>  <DeltaConfidence>  (37) 
estimated

>  <SMILES>  (37) 
[H]OC([H])([H])[C@@]1([H])O[C@]([H])(O[H])[C@]([H])(O[H])[C@@]([H])(O[H])[C@]1([H])O[H]

>  <NetFormalCharge>  (37) 
0

$$$$
GMP
     RDKit          3D

 20 22  0  0  1  0  0  0  0  0999 V2000
    4.7970    1.9170    0.9370 O   0  0  0  0  0  0  0  0  0  0  0  0
    4.4600    0.9830   -0.0920 C   0  0  0  0  0  0  0  0  0  0  0  0
    3.3860    0.0230    0.4230 C   0  0  1  0  0  0  0  0  0  0  0  0
    2.1610    0.7380    0.6550 O   0  0  0  0  0  0  0  0  0  0  0  0
    3.0930   -1.0540   -0.6400 C   0  0  1  0  0  0  0  0  0  0  0  0
    3.3710   -2.3560   -0.1230 O   0  0  0  0  0  0  0  0  0  0  0  0
    1.5810   -0.8970   -0.9320 C   0  0  1  0  0  0  0  0  0  0  0  0
    0.9520   -2.1740   -1.0650 O   0  0  0  0  0  0  0  0  0  0  0  0
    1.0790   -0.1640    0.3380 C   0  0  2  0  0  0  0  0  0  0  0  0
   -0.1480    0.5830    0.0510 N   0  0  0  0  0  0  0  0  0  0  0  0
   -0.2240    1.8790   -0.3700 C   0  0  0  0  0  0  0  0  0  0  0  0
   -1.4700    2.2190   -0.5260 N   0  0  0  0  0  0  0  0  0  0  0  0
   -2.2650    1.1660   -0.2160 C   0  0  0  0  0  0  0  0  0  0  0  0
   -3.6640    0.9580   -0.2020 C   0  0  0  0  0  0  0  0  0  0  0  0
   -4.4320    1.8510   -0.5190 O   0  0  0  0  0  0  0  0  0  0  0  0
   -4.1290   -0.2540    0.1710 N   0  0  0  0  0  0  0  0  0  0  0  0
   -3.2620   -1.2450    0.5240 C   0  0  0  0  0  0  0  0  0  0  0  0
   -3.7630   -2.4670    0.8990 N   0  0  0  0  0  0  0  0  0  0  0  0
   -1.9610   -1.0650    0.5150 N   0  0  0  0  0  0  0  0  0  0  0  0
   -1.4270    0.1070    0.1510 C   0  0  0  0  0  0  0  0  0  0  0  0
  1  2  1  0
  3  2  1  6
  3  4  1  0
  3  5  1  0
  4  9  1  0
  5  6  1  1
  5  7  1  0
  7  8  1  1
  7  9  1  0
  9 10  1  6
 10 11  1  0
 10 20  1  0
 11 12  2  0
 12 13  1  0
 13 14  1  0
 13 20  2  0
 14 15  2  0
 14 16  1  0
 16 17  1  0
 17 18  1  0
 17 19  2  0
 19 20  1  0
M  END
>  <LigandName>  (38) 
GMP

>  <Denticity>  (38) 
2

>  <DenticityDescription>  (38) 
bidentate

>  <Delta_cm-1>  (38) 
22375

>  <DeltaConfidence>  (38) 
estimated

>  <SMILES>  (38) 
[H]OC([H])([H])[C@@]1([H])O[C@@]([H])(n2c([H])nc3c(=O)n([H])c(N([H])[H])nc32)[C@]([H])(O[H])[C@]1([H])O[H]

>  <NetFormalCharge>  (38) 
0

$$$$
GTP
     RDKit          3D

 32 34  0  0  1  0  0  0  0  0999 V2000
   -6.0300   -2.3670    0.6370 P   0  0  0  0  0  0  0  0  0  0  0  0
   -7.3260   -1.9960    0.0260 O   0  0  0  0  0  0  0  0  0  0  0  0
   -6.2850   -2.9820    2.1030 O   0  0  0  0  0  0  0  0  0  0  0  0
   -5.2960   -3.4630   -0.2860 O   0  0  0  0  0  0  0  0  0  0  0  0
   -5.1010   -1.0580    0.7580 O   0  0  0  0  0  0  0  0  0  0  0  0
   -4.8180    0.2060   -0.1990 P   0  0  1  0  0  0  0  0  0  0  0  0
   -4.7320   -0.2500   -1.6050 O   0  0  0  0  0  0  0  0  0  0  0  0
   -6.0170    1.2690   -0.0520 O   0  0  0  0  0  0  0  0  0  0  0  0
   -3.4290    0.9000    0.2260 O   0  0  0  0  0  0  0  0  0  0  0  0
   -2.4490    1.9650   -0.4790 P   0  0  1  0  0  0  0  0  0  0  0  0
   -2.3500    1.6620   -1.9250 O   0  0  0  0  0  0  0  0  0  0  0  0
   -3.0400    3.4500   -0.2820 O   0  0  0  0  0  0  0  0  0  0  0  0
   -0.9880    1.8760    0.1900 O   0  0  0  0  0  0  0  0  0  0  0  0
    0.1340    2.6220   -0.2870 C   0  0  0  0  0  0  0  0  0  0  0  0
    1.3600    2.3040    0.5700 C   0  0  1  0  0  0  0  0  0  0  0  0
    1.7490    0.9330    0.3780 O   0  0  0  0  0  0  0  0  0  0  0  0
    2.5480    3.1820    0.1320 C   0  0  1  0  0  0  0  0  0  0  0  0
    2.9940    3.9970    1.2180 O   0  0  0  0  0  0  0  0  0  0  0  0
    3.6450    2.1660   -0.2690 C   0  0  1  0  0  0  0  0  0  0  0  0
    4.9290    2.5930    0.1900 O   0  0  0  0  0  0  0  0  0  0  0  0
    3.1880    0.8860    0.4760 C   0  0  2  0  0  0  0  0  0  0  0  0
    3.7110   -0.3110   -0.1880 N   0  0  0  0  0  0  0  0  0  0  0  0
    3.0940   -1.0210   -1.1760 C   0  0  0  0  0  0  0  0  0  0  0  0
    3.8430   -2.0230   -1.5330 N   0  0  0  0  0  0  0  0  0  0  0  0
    4.9810   -2.0170   -0.7980 C   0  0  0  0  0  0  0  0  0  0  0  0
    6.1290   -2.8420   -0.7530 C   0  0  0  0  0  0  0  0  0  0  0  0
    6.2350   -3.8070   -1.4910 O   0  0  0  0  0  0  0  0  0  0  0  0
    7.1060   -2.5350    0.1290 N   0  0  0  0  0  0  0  0  0  0  0  0
    6.9780   -1.4540    0.9500 C   0  0  0  0  0  0  0  0  0  0  0  0
    7.9860   -1.1650    1.8350 N   0  0  0  0  0  0  0  0  0  0  0  0
    5.9160   -0.6790    0.9170 N   0  0  0  0  0  0  0  0  0  0  0  0
    4.9110   -0.9180    0.0660 C   0  0  0  0  0  0  0  0  0  0  0  0
  1  2  2  0
  1  3  1  0
  1  4  1  0
  1  5  1  0
  6  5  1  0
  6  7  2  0
  6  8  1  6
  6  9  1  0
 10  9  1  0
 10 11  2  0
 10 12  1  6
 10 13  1  0
 13 14  1  0
 15 14  1  6
 15 16  1  0
 15 17  1  0
 16 21  1  0
 17 18  1  1
 17 19  1  0
 19 20  1  1
 19 21  1  0
 21 22  1  6
 22 23  1  0
 22 32  1  0
 23 24  2  0
 24 25  1  0
 25 26  1  0
 25 32  2  0
 26 27  2  0
 26 28  1  0
 28 29  1  0
 29 30  1  0
 29 31  2  0
 31 32  1  0
M  END
>  <LigandName>  (39) 
GTP

>  <Denticity>  (39) 
3

>  <DenticityDescription>  (39) 
tridentate

>  <Delta_cm-1>  (39) 
23071

>  <DeltaConfidence>  (39) 
estimated

>  <SMILES>  (39) 
[H]O[C@@]1([H])[C@@]([H])(O[H])[C@]([H])(n2c([H])nc3c(=O)n([H])c(N([H])[H])nc32)O[C@]1([H])C([H])([H])O[P@](=O)(O[H])O[P@](=O)(O[H])OP(=O)(O[H])O[H]

>  <NetFormalCharge>  (39) 
0

$$$$

     RDKit          3D

  1  0  0  0  0  0  0  0  0  0999 V2000
   -0.0035    0.4041    0.0000 O   0  0  0  0  0  0  0  0  0  0  0  0
M  END
>  <LigandName>  (40) 
H₂O

>  <SMILES>  (40) 
O

>  <FieldStrength>  (40) 
moderate

>  <Delta_cm-1>  (40) 
20000

>  <DonorAtom>  (40) 
O

>  <Denticity>  (40) 
1

>  <DenticityDescription>  (40) 
monodentate

>  <MolecularWeight>  (40) 
18.02

>  <HDonors>  (40) 
0

>  <HAcceptors>  (40) 
0

>  <LogP>  (40) 
-0.82

>  <NumAtoms>  (40) 
3

>  <NetFormalCharge>  (40) 
0

$$$$
HEM
     RDKit          3D

  0  0  0  0  0  0  0  0  0  0999 V3000
M  V30 BEGIN CTAB
M  V30 COUNTS 43 50 0 0 0
M  V30 BEGIN ATOM
M  V30 1 C -2.161000 -0.125000 0.490000 0
M  V30 2 C 1.458000 -3.419000 0.306000 0
M  V30 3 C 4.701000 0.169000 -0.069000 0
M  V30 4 C 1.075000 3.460000 0.018000 0
M  V30 5 C -1.436000 -1.305000 0.380000 0
M  V30 6 C -2.015000 -2.587000 0.320000 0
M  V30 7 C -1.009000 -3.500000 0.270000 0
M  V30 8 C 0.216000 -2.803000 0.298000 0
M  V30 9 C -1.175000 -4.996000 0.197000 0
M  V30 10 C -3.490000 -2.893000 0.314000 0
M  V30 11 C -3.998000 -2.926000 -1.129000 0
M  V30 12 C -5.473000 -3.232000 -1.136000 0
M  V30 13 O -6.059000 -3.405000 -0.094000 0
M  V30 14 O -6.137000 -3.311000 -2.300000 0
M  V30 15 C 2.664000 -2.707000 0.308000 0
M  V30 16 C 3.937000 -3.328000 0.418000 0
M  V30 17 C 4.874000 -2.341000 0.314000 0
M  V30 18 C 4.117000 -1.079000 0.139000 0
M  V30 19 C 4.203000 -4.798000 0.613000 0
M  V30 20 C 6.339000 -2.497000 0.365000 0
M  V30 21 C 6.935000 -3.419000 -0.385000 0
M  V30 22 C 3.964000 1.345000 -0.174000 0
M  V30 23 C 4.531000 2.601000 -0.445000 0
M  V30 24 C 3.510000 3.536000 -0.437000 0
M  V30 25 C 2.304000 2.846000 -0.139000 0
M  V30 26 C 5.991000 2.880000 -0.697000 0
M  V30 27 C 3.649000 4.981000 -0.692000 0
M  V30 28 C 4.201000 5.407000 -1.823000 0
M  V30 29 C -0.102000 2.753000 0.298000 0
M  V30 30 C -1.382000 3.388000 0.641000 0
M  V30 31 C -2.283000 2.389000 0.774000 0
M  V30 32 C -1.561000 1.137000 0.511000 0
M  V30 33 C -1.639000 4.863000 0.811000 0
M  V30 34 C -3.741000 2.532000 1.123000 0
M  V30 35 C -4.573000 2.563000 -0.160000 0
M  V30 36 C -6.032000 2.706000 0.189000 0
M  V30 37 O -6.372000 2.776000 1.347000 0
M  V30 38 O -6.954000 2.755000 -0.785000 0
M  V30 39 N -0.068000 -1.456000 0.321000 0
M  V30 40 N 2.820000 -1.386000 0.207000 0
M  V30 41 N 2.604000 1.506000 -0.033000 0
M  V30 42 N -0.276000 1.431000 0.298000 0
M  V30 43 Fe 1.010000 0.157000 -0.060000 0 CFG=1 VAL=4
M  V30 END ATOM
M  V30 BEGIN BOND
M  V30 1 1 1 5
M  V30 2 2 1 32
M  V30 3 1 2 8
M  V30 4 2 2 15
M  V30 5 1 3 18
M  V30 6 2 3 22
M  V30 7 2 4 25
M  V30 8 1 4 29
M  V30 9 2 5 6
M  V30 10 1 5 39
M  V30 11 1 6 7
M  V30 12 1 6 10
M  V30 13 2 7 8
M  V30 14 1 7 9
M  V30 15 1 8 39
M  V30 16 1 10 11
M  V30 17 1 11 12
M  V30 18 2 12 13
M  V30 19 1 12 14
M  V30 20 1 15 16
M  V30 21 1 15 40
M  V30 22 2 16 17
M  V30 23 1 16 19
M  V30 24 1 17 18
M  V30 25 1 17 20
M  V30 26 2 18 40
M  V30 27 2 20 21
M  V30 28 1 22 23
M  V30 29 1 22 41
M  V30 30 2 23 24
M  V30 31 1 23 26
M  V30 32 1 24 25
M  V30 33 1 24 27
M  V30 34 1 25 41
M  V30 35 2 27 28
M  V30 36 1 29 30
M  V30 37 2 29 42
M  V30 38 2 30 31
M  V30 39 1 30 33
M  V30 40 1 31 32
M  V30 41 1 31 34
M  V30 42 1 32 42
M  V30 43 1 34 35
M  V30 44 1 35 36
M  V30 45 2 36 37
M  V30 46 1 36 38
M  V30 47 1 43 39
M  V30 48 9 40 43
M  V30 49 1 43 41
M  V30 50 9 42 43
M  V30 END BOND
M  V30 END CTAB
M  END
>  <LigandName>  (41) 
HEM

>  <Denticity>  (41) 
4

>  <DenticityDescription>  (41) 
tetradentate

>  <Delta_cm-1>  (41) 
22000

>  <DeltaConfidence>  (41) 
estimated

>  <SMILES>  (41) 
[H]OC(=O)C([H])([H])C([H])([H])C1=C(C([H])([H])[H])C2=N3->[Fe@SP3]45<-N6=C(C(C([H])=C([H])[H])=C(C([H])([H])[H])/C6=C(\[H])c6c(C([H])([H])[H])c(C([H])([H])C([H])([H])C(=O)O[H])c(n64)/C([H])=C/13)/C([H])=c1/c(C([H])([H])[H])c(C([H])=C([H])[H])/c(n15)=C/2[H]

>  <NetFormalCharge>  (41) 
0

$$$$
HEZ
     RDKit          3D

  8  7  0  0  0  0  0  0  0  0999 V2000
   -0.2850    0.0000    4.2970 O   0  0  0  0  0  0  0  0  0  0  0  0
    0.5120    0.0000    3.1120 C   0  0  0  0  0  0  0  0  0  0  0  0
   -0.3990    0.0000    1.8830 C   0  0  0  0  0  0  0  0  0  0  0  0
    0.4550    0.0000    0.6140 C   0  0  0  0  0  0  0  0  0  0  0  0
   -0.4550    0.0000   -0.6140 C   0  0  0  0  0  0  0  0  0  0  0  0
    0.3990    0.0000   -1.8830 C   0  0  0  0  0  0  0  0  0  0  0  0
   -0.5120    0.0000   -3.1120 C   0  0  0  0  0  0  0  0  0  0  0  0
    0.2850    0.0000   -4.2970 O   0  0  0  0  0  0  0  0  0  0  0  0
  1  2  1  0
  2  3  1  0
  3  4  1  0
  4  5  1  0
  5  6  1  0
  6  7  1  0
  7  8  1  0
M  END
>  <LigandName>  (42) 
HEZ

>  <Denticity>  (42) 
1

>  <DenticityDescription>  (42) 
monodentate

>  <Delta_cm-1>  (42) 
20000

>  <DeltaConfidence>  (42) 
estimated

>  <SMILES>  (42) 
[H]OC([H])([H])C([H])([H])C([H])([H])C([H])([H])C([H])([H])C([H])([H])O[H]

>  <NetFormalCharge>  (42) 
0

$$$$

     RDKit          3D

  1  0  0  0  0  0  0  0  0  0999 V2000
    4.0000    0.0000    0.0000 H   0  0  0  0  0 15  0  0  0  0  0  0
M  CHG  1   1  -1
M  END
>  <LigandName>  (43) 
H⁻

>  <SMILES>  (43) 
[H-]

>  <FieldStrength>  (43) 
very strong

>  <Delta_cm-1>  (43) 
31000

>  <DonorAtom>  (43) 
H

>  <Denticity>  (43) 
1

>  <DenticityDescription>  (43) 
monodentate

>  <MolecularWeight>  (43) 
1.01

>  <HDonors>  (43) 
0

>  <HAcceptors>  (43) 
0

>  <LogP>  (43) 
0.11

>  <NumAtoms>  (43) 
1

>  <NetFormalCharge>  (43) 
-1

$$$$

     RDKit          3D

  5  5  0  0  0  0  0  0  0  0999 V2000
    0.6588    0.6889   -0.2860 C   0  0  0  0  0  0  0  0  0  0  0  0
    1.0720   -0.5981   -0.0289 C   0  0  0  0  0  0  0  0  0  0  0  0
   -0.0023   -1.4094    0.0413 N   0  0  0  0  0  0  0  0  0  0  0  0
   -1.0511   -0.5887   -0.1768 C   0  0  0  0  0  0  0  0  0  0  0  0
   -0.6790    0.6885   -0.3781 N   0  0  0  0  0  0  0  0  0  0  0  0
  1  2  2  0
  2  3  1  0
  3  4  2  0
  4  5  1  0
  5  1  1  0
M  END
>  <LigandName>  (44) 
Imidazole

>  <SMILES>  (44) 
c1cnc[nH]1

>  <FieldStrength>  (44) 
moderate-strong

>  <Delta_cm-1>  (44) 
24000

>  <DonorAtom>  (44) 
N

>  <Denticity>  (44) 
1

>  <DenticityDescription>  (44) 
monodentate

>  <MolecularWeight>  (44) 
68.08

>  <HDonors>  (44) 
1

>  <HAcceptors>  (44) 
1

>  <LogP>  (44) 
0.41

>  <NumAtoms>  (44) 
9

>  <NetFormalCharge>  (44) 
0

$$$$

     RDKit          3D

  1  0  0  0  0  0  0  0  0  0999 V2000
    4.0000    0.0000    0.0000 I   0  0  0  0  0 15  0  0  0  0  0  0
M  CHG  1   1  -1
M  END
>  <LigandName>  (45) 
I⁻

>  <SMILES>  (45) 
[I-]

>  <FieldStrength>  (45) 
very weak

>  <Delta_cm-1>  (45) 
10000

>  <DonorAtom>  (45) 
I

>  <Denticity>  (45) 
1

>  <DenticityDescription>  (45) 
monodentate

>  <MolecularWeight>  (45) 
126.9

>  <HDonors>  (45) 
0

>  <HAcceptors>  (45) 
0

>  <LogP>  (45) 
-3.0

>  <NumAtoms>  (45) 
1

>  <NetFormalCharge>  (45) 
-1

$$$$
IOD
     RDKit          2D

  1  0  0  0  0  0  0  0  0  0999 V2000
    0.0000    0.0000    0.0000 I   0  0  0  0  0  0  0  0  0  0  0  0
M  CHG  1   1  -1
M  END
>  <LigandName>  (46) 
IOD

>  <Denticity>  (46) 
1

>  <DenticityDescription>  (46) 
monodentate

>  <Delta_cm-1>  (46) 
12000

>  <DeltaConfidence>  (46) 
estimated

>  <SMILES>  (46) 
[I-]

>  <NetFormalCharge>  (46) 
-1

$$$$
K
     RDKit          2D

  1  0  0  0  0  0  0  0  0  0999 V2000
    0.0000    0.0000    0.0000 K   0  0  0  0  0 15  0  0  0  0  0  0
M  CHG  1   1   1
M  END
>  <LigandName>  (47) 
K

>  <Denticity>  (47) 
1

>  <DenticityDescription>  (47) 
monodentate

>  <Delta_cm-1>  (47) 
20000

>  <DeltaConfidence>  (47) 
default

>  <SMILES>  (47) 
[K+]

>  <NetFormalCharge>  (47) 
1

$$$$
MAN
     RDKit          3D

 12 12  0  0  1  0  0  0  0  0999 V2000
   -1.6920   -0.1560   -0.3160 C   0  0  1  0  0  0  0  0  0  0  0  0
   -0.8780    0.0910   -1.5880 C   0  0  2  0  0  0  0  0  0  0  0  0
    0.5350   -0.4670   -1.3910 C   0  0  2  0  0  0  0  0  0  0  0  0
    1.1260    0.1340   -0.1110 C   0  0  1  0  0  0  0  0  0  0  0  0
    0.1600   -0.1170    1.0480 C   0  0  1  0  0  0  0  0  0  0  0  0
    0.7570    0.4480    2.3390 C   0  0  0  0  0  0  0  0  0  0  0  0
   -1.7350   -1.5580   -0.0460 O   0  0  0  0  0  0  0  0  0  0  0  0
   -0.8080    1.4940   -1.8450 O   0  0  0  0  0  0  0  0  0  0  0  0
    1.3500   -0.1130   -2.5110 O   0  0  0  0  0  0  0  0  0  0  0  0
    2.3840   -0.4820    0.1700 O   0  0  0  0  0  0  0  0  0  0  0  0
   -1.0870    0.5200    0.7840 O   0  0  0  0  0  0  0  0  0  0  0  0
   -0.1420    0.2110    3.4230 O   0  0  0  0  0  0  0  0  0  0  0  0
  1  2  1  0
  1  7  1  1
  1 11  1  0
  2  3  1  0
  2  8  1  1
  3  4  1  0
  3  9  1  6
  4  5  1  0
  4 10  1  1
  5  6  1  1
  5 11  1  0
  6 12  1  0
M  END
>  <LigandName>  (48) 
MAN

>  <Denticity>  (48) 
1

>  <DenticityDescription>  (48) 
monodentate

>  <Delta_cm-1>  (48) 
20000

>  <DeltaConfidence>  (48) 
estimated

>  <SMILES>  (48) 
[H]OC([H])([H])[C@@]1([H])O[C@]([H])(O[H])[C@@]([H])(O[H])[C@@]([H])(O[H])[C@]1([H])O[H]

>  <NetFormalCharge>  (48) 
0

$$$$

     RDKit          3D

  3  2  0  0  0  0  0  0  0  0999 V2000
   -0.4955    0.0085    0.0018 C   0  0  0  0  0  0  0  0  0  0  0  0
    0.9674   -0.0166   -0.0034 C   0  0  0  0  0  0  0  0  0  0  0  0
    2.1244   -0.0365   -0.0075 N   0  0  0  0  0  0  0  0  0  0  0  0
  1  2  1  0
  2  3  3  0
M  END
>  <LigandName>  (49) 
MeCN

>  <SMILES>  (49) 
CC#N

>  <FieldStrength>  (49) 
moderate-strong

>  <Delta_cm-1>  (49) 
24000

>  <DonorAtom>  (49) 
N

>  <Denticity>  (49) 
1

>  <DenticityDescription>  (49) 
monodentate

>  <MolecularWeight>  (49) 
41.05

>  <HDonors>  (49) 
0

>  <HAcceptors>  (49) 
1

>  <LogP>  (49) 
0.53

>  <NumAtoms>  (49) 
6

>  <NetFormalCharge>  (49) 
0

$$$$

     RDKit          3D

  2  1  0  0  0  0  0  0  0  0999 V2000
   -0.3538   -0.0437   -0.0377 C   0  0  0  0  0  0  0  0  0  0  0  0
    0.9822   -0.4497   -0.1147 O   0  0  0  0  0  0  0  0  0  0  0  0
  1  2  1  0
M  END
>  <LigandName>  (50) 
MeOH

>  <SMILES>  (50) 
CO

>  <FieldStrength>  (50) 
moderate

>  <Delta_cm-1>  (50) 
20000

>  <DonorAtom>  (50) 
O

>  <Denticity>  (50) 
1

>  <DenticityDescription>  (50) 
monodentate

>  <MolecularWeight>  (50) 
32.04

>  <HDonors>  (50) 
1

>  <HAcceptors>  (50) 
1

>  <LogP>  (50) 
-0.39

>  <NumAtoms>  (50) 
6

>  <NetFormalCharge>  (50) 
0

$$$$
MES
     RDKit          3D

 12 12  0  0  0  0  0  0  0  0999 V2000
    4.1150    0.3260   -0.3730 O   0  0  0  0  0  0  0  0  0  0  0  0
    3.7640   -0.9230    0.2210 C   0  0  0  0  0  0  0  0  0  0  0  0
    2.3310   -1.2940   -0.1640 C   0  0  0  0  0  0  0  0  0  0  0  0
    1.4100   -0.2670    0.3430 N   0  0  0  0  0  0  0  0  0  0  0  0
    1.8120    1.0450   -0.1860 C   0  0  0  0  0  0  0  0  0  0  0  0
    3.2660    1.3210    0.1990 C   0  0  0  0  0  0  0  0  0  0  0  0
    0.0420   -0.5750   -0.0940 C   0  0  0  0  0  0  0  0  0  0  0  0
   -0.9320    0.4250    0.5330 C   0  0  0  0  0  0  0  0  0  0  0  0
   -2.6210    0.0450   -0.0070 S   0  0  0  0  0  0  0  0  0  0  0  0
   -2.9690   -1.3030    0.4150 O   0  0  0  0  0  0  0  0  0  0  0  0
   -2.6950    0.1380   -1.4570 O   0  0  0  0  0  0  0  0  0  0  0  0
   -3.5430    0.9980    0.5910 O   0  0  0  0  0  0  0  0  0  0  0  0
  1  2  1  0
  1  6  1  0
  2  3  1  0
  3  4  1  0
  4  5  1  0
  4  7  1  0
  5  6  1  0
  7  8  1  0
  8  9  1  0
  9 10  2  0
  9 11  2  0
  9 12  1  0
M  CHG  2   4   1  12  -1
M  END
>  <LigandName>  (51) 
MES

>  <Denticity>  (51) 
1

>  <DenticityDescription>  (51) 
monodentate

>  <Delta_cm-1>  (51) 
18666

>  <DeltaConfidence>  (51) 
estimated

>  <SMILES>  (51) 
[H]C1([H])OC([H])([H])C([H])([H])[N+]([H])(C([H])([H])C([H])([H])S(=O)(=O)[O-])C1([H])[H]

>  <NetFormalCharge>  (51) 
0

$$$$
MG
     RDKit          2D

  1  0  0  0  0  0  0  0  0  0999 V2000
    0.0000    0.0000    0.0000 Mg  0  0  0  0  0 15  0  0  0  0  0  0
M  CHG  1   1   2
M  END
>  <LigandName>  (52) 
MG

>  <Denticity>  (52) 
1

>  <DenticityDescription>  (52) 
monodentate

>  <Delta_cm-1>  (52) 
20000

>  <DeltaConfidence>  (52) 
default

>  <SMILES>  (52) 
[Mg+2]

>  <NetFormalCharge>  (52) 
2

$$$$
MN
     RDKit          2D

  1  0  0  0  0  0  0  0  0  0999 V2000
    0.0000    0.0000    0.0000 Mn  0  0  0  0  0 15  0  0  0  0  0  0
M  CHG  1   1   2
M  END
>  <LigandName>  (53) 
MN

>  <Denticity>  (53) 
1

>  <DenticityDescription>  (53) 
monodentate

>  <Delta_cm-1>  (53) 
20000

>  <DeltaConfidence>  (53) 
default

>  <SMILES>  (53) 
[Mn+2]

>  <NetFormalCharge>  (53) 
2

$$$$
MPD
     RDKit          3D

  8  7  0  0  1  0  0  0  0  0999 V2000
   -1.2970   -0.4630   -1.4620 C   0  0  0  0  0  0  0  0  0  0  0  0
   -1.1180   -0.0870    0.0100 C   0  0  0  0  0  0  0  0  0  0  0  0
   -1.0610    1.3360    0.1340 O   0  0  0  0  0  0  0  0  0  0  0  0
   -2.3000   -0.6220    0.8200 C   0  0  0  0  0  0  0  0  0  0  0  0
    0.1810   -0.6980    0.5390 C   0  0  0  0  0  0  0  0  0  0  0  0
    1.3630   -0.1620   -0.2720 C   0  0  1  0  0  0  0  0  0  0  0  0
    1.4910    1.2450   -0.0550 O   0  0  0  0  0  0  0  0  0  0  0  0
    2.6470   -0.8650    0.1730 C   0  0  0  0  0  0  0  0  0  0  0  0
  1  2  1  0
  2  3  1  0
  2  4  1  0
  2  5  1  0
  5  6  1  0
  6  7  1  0
  6  8  1  1
M  END
>  <LigandName>  (54) 
MPD

>  <Denticity>  (54) 
1

>  <DenticityDescription>  (54) 
monodentate

>  <Delta_cm-1>  (54) 
20000

>  <DeltaConfidence>  (54) 
estimated

>  <SMILES>  (54) 
[H]OC(C([H])([H])[H])(C([H])([H])[H])C([H])([H])[C@@]([H])(O[H])C([H])([H])[H]

>  <NetFormalCharge>  (54) 
0

$$$$
NA
     RDKit          2D

  1  0  0  0  0  0  0  0  0  0999 V2000
    0.0000    0.0000    0.0000 Na  0  0  0  0  0 15  0  0  0  0  0  0
M  CHG  1   1   1
M  END
>  <LigandName>  (55) 
NA

>  <Denticity>  (55) 
1

>  <DenticityDescription>  (55) 
monodentate

>  <Delta_cm-1>  (55) 
20000

>  <DeltaConfidence>  (55) 
default

>  <SMILES>  (55) 
[Na+]

>  <NetFormalCharge>  (55) 
1

$$$$
NAD
     RDKit          3D

 44 48  0  0  1  0  0  0  0  0999 V2000
   -0.8870   -0.8130   -0.6760 P   0  0  2  0  0  0  0  0  0  0  0  0
   -1.2580    0.1020   -1.7780 O   0  0  0  0  0  0  0  0  0  0  0  0
   -0.2490   -2.1590   -1.2870 O   0  0  0  0  0  0  0  0  0  0  0  0
   -2.2000   -1.1820    0.1800 O   0  0  0  0  0  0  0  0  0  0  0  0
   -3.1590   -1.7060   -0.7410 C   0  0  0  0  0  0  0  0  0  0  0  0
   -4.4370   -2.0790    0.0120 C   0  0  1  0  0  0  0  0  0  0  0  0
   -5.0680   -0.8930    0.5230 O   0  0  0  0  0  0  0  0  0  0  0  0
   -5.4340   -2.7540   -0.9500 C   0  0  1  0  0  0  0  0  0  0  0  0
   -5.7450   -4.0780   -0.5120 O   0  0  0  0  0  0  0  0  0  0  0  0
   -6.6930   -1.8500   -0.8810 C   0  0  1  0  0  0  0  0  0  0  0  0
   -7.8850   -2.6380   -0.8620 O   0  0  0  0  0  0  0  0  0  0  0  0
   -6.4930   -1.1160    0.4690 C   0  0  2  0  0  0  0  0  0  0  0  0
   -7.2160    0.1580    0.4790 N   0  0  0  0  0  0  0  0  0  0  0  0
   -6.7230    1.3680    0.0890 C   0  0  0  0  0  0  0  0  0  0  0  0
   -7.6350    2.2860    0.2290 N   0  0  0  0  0  0  0  0  0  0  0  0
   -8.7680    1.7250    0.7170 C   0  0  0  0  0  0  0  0  0  0  0  0
  -10.0420    2.2090    1.0590 C   0  0  0  0  0  0  0  0  0  0  0  0
  -10.3520    3.5500    0.9160 N   0  0  0  0  0  0  0  0  0  0  0  0
  -10.9420    1.3480    1.5240 N   0  0  0  0  0  0  0  0  0  0  0  0
  -10.6550    0.0670    1.6630 C   0  0  0  0  0  0  0  0  0  0  0  0
   -9.4760   -0.4310    1.3550 N   0  0  0  0  0  0  0  0  0  0  0  0
   -8.5140    0.3520    0.8780 C   0  0  0  0  0  0  0  0  0  0  0  0
    0.1910   -0.0930    0.2790 O   0  0  0  0  0  0  0  0  0  0  0  0
    1.2040    0.7070   -0.6830 P   0  0  2  0  0  0  0  0  0  0  0  0
    0.5560    2.0420   -1.1150 O   0  0  0  0  0  0  0  0  0  0  0  0
    1.5090   -0.1460   -1.9340 O   0  0  0  0  0  0  0  0  0  0  0  0
    2.5730    1.0070    0.1090 O   0  0  0  0  0  0  0  0  0  0  0  0
    3.4690    1.6100   -0.8270 C   0  0  0  0  0  0  0  0  0  0  0  0
    4.7970    1.9210   -0.1350 C   0  0  1  0  0  0  0  0  0  0  0  0
    5.4670    0.6980    0.2410 O   0  0  0  0  0  0  0  0  0  0  0  0
    5.7670    2.6180   -1.1150 C   0  0  1  0  0  0  0  0  0  0  0  0
    5.7450    4.0330   -0.9210 O   0  0  0  0  0  0  0  0  0  0  0  0
    7.1540    2.0400   -0.7460 C   0  0  1  0  0  0  0  0  0  0  0  0
    8.0310    3.0820   -0.3140 O   0  0  0  0  0  0  0  0  0  0  0  0
    6.8540    1.0620    0.4110 C   0  0  2  0  0  0  0  0  0  0  0  0
    7.7080   -0.1250    0.3100 N   0  0  0  0  0  0  0  0  0  0  0  0
    8.7630   -0.2220    1.0930 C   0  0  0  0  0  0  0  0  0  0  0  0
    9.6010   -1.3350    1.0170 C   0  0  0  0  0  0  0  0  0  0  0  0
   10.7890   -1.4420    1.8910 C   0  0  0  0  0  0  0  0  0  0  0  0
   11.0450   -0.5530    2.6800 O   0  0  0  0  0  0  0  0  0  0  0  0
   11.5880   -2.5240    1.8130 N   0  0  0  0  0  0  0  0  0  0  0  0
    9.2960   -2.3520    0.1040 C   0  0  0  0  0  0  0  0  0  0  0  0
    8.1730   -2.2040   -0.6900 C   0  0  0  0  0  0  0  0  0  0  0  0
    7.3950   -1.0670   -0.5590 C   0  0  0  0  0  0  0  0  0  0  0  0
  1  2  2  0
  1  3  1  6
  1  4  1  0
  1 23  1  0
  4  5  1  0
  6  5  1  6
  6  7  1  0
  6  8  1  0
  7 12  1  0
  8  9  1  1
  8 10  1  0
 10 11  1  1
 10 12  1  0
 12 13  1  6
 13 14  1  0
 13 22  1  0
 14 15  2  0
 15 16  1  0
 16 17  2  0
 16 22  1  0
 17 18  1  0
 17 19  1  0
 19 20  2  0
 20 21  1  0
 21 22  2  0
 23 24  1  0
 24 25  2  0
 24 26  1  6
 24 27  1  0
 27 28  1  0
 29 28  1  6
 29 30  1  0
 29 31  1  0
 30 35  1  0
 31 32  1  1
 31 33  1  0
 33 34  1  1
 33 35  1  0
 35 36  1  6
 36 37  2  0
 36 44  1  0
 37 38  1  0
 38 39  1  0
 38 42  2  0
 39 40  2  0
 39 41  1  0
 42 43  1  0
 43 44  2  0
M  CHG  2  26  -1  36   1
M  END
>  <LigandName>  (56) 
NAD

>  <Denticity>  (56) 
3

>  <DenticityDescription>  (56) 
tridentate

>  <Delta_cm-1>  (56) 
22785

>  <DeltaConfidence>  (56) 
estimated

>  <SMILES>  (56) 
[H]O[C@@]1([H])[C@@]([H])(O[H])[C@]([H])(n2c([H])nc3c(N([H])[H])nc([H])nc32)O[C@]1([H])C([H])([H])O[P@](=O)(O[H])O[P@](=O)([O-])OC([H])([H])[C@@]1([H])O[C@@]([H])([n+]2c([H])c([H])c([H])c(C(=O)N([H])[H])c2[H])[C@]([H])(O[H])[C@]1([H])O[H]

>  <NetFormalCharge>  (56) 
0

$$$$
NAG
     RDKit          3D

 15 15  0  0  1  0  0  0  0  0999 V2000
    0.1850    1.0820   -0.4210 C   0  0  2  0  0  0  0  0  0  0  0  0
    0.7900   -0.2200    0.1120 C   0  0  1  0  0  0  0  0  0  0  0  0
   -0.1240   -1.3900   -0.2650 C   0  0  2  0  0  0  0  0  0  0  0  0
   -1.5260   -1.1290    0.2940 C   0  0  1  0  0  0  0  0  0  0  0  0
   -2.0420    0.2070   -0.2460 C   0  0  1  0  0  0  0  0  0  0  0  0
   -3.4170    0.5040    0.3550 C   0  0  0  0  0  0  0  0  0  0  0  0
    3.1970    0.1570    0.0760 C   0  0  0  0  0  0  0  0  0  0  0  0
    4.5590   -0.0520   -0.5330 C   0  0  0  0  0  0  0  0  0  0  0  0
    2.1140   -0.4220   -0.4800 N   0  0  0  0  0  0  0  0  0  0  0  0
    1.0030    2.1850   -0.0240 O   0  0  0  0  0  0  0  0  0  0  0  0
    0.3950   -2.6000    0.2910 O   0  0  0  0  0  0  0  0  0  0  0  0
   -2.4050   -2.1800   -0.1140 O   0  0  0  0  0  0  0  0  0  0  0  0
   -1.1300    1.2480    0.1130 O   0  0  0  0  0  0  0  0  0  0  0  0
   -3.9490    1.6910   -0.2360 O   0  0  0  0  0  0  0  0  0  0  0  0
    3.0740    0.8450    1.0670 O   0  0  0  0  0  0  0  0  0  0  0  0
  1  2  1  0
  1 10  1  1
  1 13  1  0
  2  3  1  0
  2  9  1  6
  3  4  1  0
  3 11  1  1
  4  5  1  0
  4 12  1  6
  5  6  1  1
  5 13  1  0
  6 14  1  0
  7  8  1  0
  7  9  1  0
  7 15  2  0
M  END
>  <LigandName>  (57) 
NAG

>  <Denticity>  (57) 
1

>  <DenticityDescription>  (57) 
monodentate

>  <Delta_cm-1>  (57) 
20000

>  <DeltaConfidence>  (57) 
estimated

>  <SMILES>  (57) 
[H]OC([H])([H])[C@@]1([H])O[C@@]([H])(O[H])[C@]([H])(N([H])C(=O)C([H])([H])[H])[C@@]([H])(O[H])[C@]1([H])O[H]

>  <NetFormalCharge>  (57) 
0

$$$$

     RDKit          3D

  3  2  0  0  0  0  0  0  0  0999 V2000
   -0.8456   -0.2013    0.5928 N   0  0  0  0  0  0  0  0  0  0  0  0
    0.3991   -0.0552    0.3900 C   0  0  0  0  0  0  0  0  0  0  0  0
    1.9788    0.1303    0.1325 S   0  0  0  0  0  0  0  0  0  0  0  0
  1  2  2  0
  2  3  2  0
M  END
>  <LigandName>  (58) 
NCS⁻ (N-bound)

>  <SMILES>  (58) 
N=C=S

>  <FieldStrength>  (58) 
moderate

>  <Delta_cm-1>  (58) 
20000

>  <DonorAtom>  (58) 
N

>  <Denticity>  (58) 
1

>  <DenticityDescription>  (58) 
monodentate

>  <MolecularWeight>  (58) 
59.09

>  <HDonors>  (58) 
1

>  <HAcceptors>  (58) 
2

>  <LogP>  (58) 
0.67

>  <NumAtoms>  (58) 
4

>  <NetFormalCharge>  (58) 
0

$$$$

     RDKit          3D

  1  0  0  0  0  0  0  0  0  0999 V2000
   -0.0043    0.0112    0.2947 N   0  0  0  0  0  0  0  0  0  0  0  0
M  END
>  <LigandName>  (59) 
NH₃

>  <SMILES>  (59) 
N

>  <FieldStrength>  (59) 
moderate-strong

>  <Delta_cm-1>  (59) 
23000

>  <DonorAtom>  (59) 
N

>  <Denticity>  (59) 
1

>  <DenticityDescription>  (59) 
monodentate

>  <MolecularWeight>  (59) 
17.03

>  <HDonors>  (59) 
1

>  <HAcceptors>  (59) 
1

>  <LogP>  (59) 
0.16

>  <NumAtoms>  (59) 
4

>  <NetFormalCharge>  (59) 
0

$$$$
NH4
     RDKit          3D

  1  0  0  0  0  0  0  0  0  0999 V2000
    0.0000    0.0000    0.0000 N   0  0  0  0  0  0  0  0  0  0  0  0
M  CHG  1   1   1
M  END
>  <LigandName>  (60) 
NH4

>  <Denticity>  (60) 
1

>  <DenticityDescription>  (60) 
monodentate

>  <Delta_cm-1>  (60) 
20000

>  <DeltaConfidence>  (60) 
default

>  <SMILES>  (60) 
[H][N+]([H])([H])[H]

>  <NetFormalCharge>  (60) 
1

$$$$

     RDKit          3D

  3  2  0  0  0  0  0  0  0  0999 V2000
    1.1628   -0.2017    0.0000 O   0  0  0  0  0  1  0  0  0  0  0  0
   -0.0550    0.4349    0.0000 N   0  0  0  0  0  3  0  0  0  0  0  0
   -1.1078   -0.2333    0.0000 O   0  0  0  0  0  0  0  0  0  0  0  0
  1  2  1  0
  2  3  2  0
M  CHG  2   1  -1   2   1
M  RAD  1   2   2
M  END
>  <LigandName>  (61) 
NO₂⁻

>  <SMILES>  (61) 
[O-][N+](=O)

>  <FieldStrength>  (61) 
strong

>  <Delta_cm-1>  (61) 
27000

>  <DonorAtom>  (61) 
N

>  <Denticity>  (61) 
1

>  <DenticityDescription>  (61) 
monodentate

>  <MolecularWeight>  (61) 
46.01

>  <HDonors>  (61) 
0

>  <HAcceptors>  (61) 
3

>  <LogP>  (61) 
-0.41

>  <NumAtoms>  (61) 
3

>  <NetFormalCharge>  (61) 
0

$$$$
NO3
     RDKit          2D

  4  3  0  0  0  0  0  0  0  0999 V2000
   -0.0000    0.0000   -0.0010 N   0  0  0  0  0  0  0  0  0  0  0  0
   -1.2180    0.0170    0.0000 O   0  0  0  0  0  0  0  0  0  0  0  0
    0.6230    1.0460    0.0000 O   0  0  0  0  0  0  0  0  0  0  0  0
    0.5950   -1.0630    0.0000 O   0  0  0  0  0  0  0  0  0  0  0  0
  1  2  2  0
  1  3  1  0
  1  4  1  0
M  CHG  3   1   1   3  -1   4  -1
M  END
>  <LigandName>  (62) 
NO3

>  <Denticity>  (62) 
1

>  <DenticityDescription>  (62) 
monodentate

>  <Delta_cm-1>  (62) 
20000

>  <DeltaConfidence>  (62) 
estimated

>  <SMILES>  (62) 
O=[N+]([O-])[O-]

>  <NetFormalCharge>  (62) 
-1

$$$$

     RDKit          3D

  4  3  0  0  0  0  0  0  0  0999 V2000
   -1.1292   -0.7553   -0.0083 O   0  0  0  0  0  0  0  0  0  0  0  0
   -0.0027    0.0317    0.0004 N   0  0  0  0  0  0  0  0  0  0  0  0
   -0.1102    1.2739    0.0146 O   0  0  0  0  0  0  0  0  0  0  0  0
    1.2421   -0.5503   -0.0066 O   0  0  0  0  0  1  0  0  0  0  0  0
  1  2  1  0
  2  3  2  0
  2  4  1  0
M  CHG  3   1  -1   2   1   4  -1
M  END
>  <LigandName>  (63) 
NO₃⁻

>  <SMILES>  (63) 
O=N(=O)[O-]

>  <FieldStrength>  (63) 
weak

>  <Delta_cm-1>  (63) 
15000

>  <DonorAtom>  (63) 
O

>  <Denticity>  (63) 
1

>  <DenticityDescription>  (63) 
monodentate

>  <MolecularWeight>  (63) 
62.0

>  <HDonors>  (63) 
0

>  <HAcceptors>  (63) 
3

>  <LogP>  (63) 
-0.24

>  <NumAtoms>  (63) 
4

>  <NetFormalCharge>  (63) 
-1

$$$$

     RDKit          3D

  1  0  0  0  0  0  0  0  0  0999 V2000
    0.4951    0.0000    0.0000 O   0  0  0  0  0  1  0  0  0  0  0  0
M  CHG  1   1  -1
M  END
>  <LigandName>  (64) 
OH⁻

>  <SMILES>  (64) 
[OH-]

>  <FieldStrength>  (64) 
moderate

>  <Delta_cm-1>  (64) 
19000

>  <DonorAtom>  (64) 
O

>  <Denticity>  (64) 
1

>  <DenticityDescription>  (64) 
monodentate

>  <MolecularWeight>  (64) 
17.01

>  <HDonors>  (64) 
0

>  <HAcceptors>  (64) 
1

>  <LogP>  (64) 
-0.18

>  <NumAtoms>  (64) 
2

>  <NetFormalCharge>  (64) 
-1

$$$$
PB
     RDKit          2D

  1  0  0  0  0  0  0  0  0  0999 V2000
    0.0000    0.0000    0.0000 Pb  0  0  0  0  0 15  0  0  0  0  0  0
M  CHG  1   1   2
M  END
>  <LigandName>  (65) 
PB

>  <Denticity>  (65) 
1

>  <DenticityDescription>  (65) 
monodentate

>  <Delta_cm-1>  (65) 
20000

>  <DeltaConfidence>  (65) 
default

>  <SMILES>  (65) 
[Pb+2]

>  <NetFormalCharge>  (65) 
2

$$$$
PEG
     RDKit          3D

  7  6  0  0  0  0  0  0  0  0999 V2000
   -2.3390   -0.0420   -0.5880 C   0  0  0  0  0  0  0  0  0  0  0  0
   -2.6670   -0.7840    0.5880 O   0  0  0  0  0  0  0  0  0  0  0  0
   -1.1620    0.8900   -0.2920 C   0  0  0  0  0  0  0  0  0  0  0  0
    0.0000    0.1120    0.0000 O   0  0  0  0  0  0  0  0  0  0  0  0
    1.1620    0.8900    0.2920 C   0  0  0  0  0  0  0  0  0  0  0  0
    2.3390   -0.0420    0.5880 C   0  0  0  0  0  0  0  0  0  0  0  0
    2.6670   -0.7840   -0.5890 O   0  0  0  0  0  0  0  0  0  0  0  0
  1  2  1  0
  1  3  1  0
  3  4  1  0
  4  5  1  0
  5  6  1  0
  6  7  1  0
M  END
>  <LigandName>  (66) 
PEG

>  <Denticity>  (66) 
1

>  <DenticityDescription>  (66) 
monodentate

>  <Delta_cm-1>  (66) 
20000

>  <DeltaConfidence>  (66) 
estimated

>  <SMILES>  (66) 
[H]OC([H])([H])C([H])([H])OC([H])([H])C([H])([H])O[H]

>  <NetFormalCharge>  (66) 
0

$$$$
PGE
     RDKit          3D

 10  9  0  0  0  0  0  0  0  0999 V2000
    0.9130   -0.4580    3.4840 C   0  0  0  0  0  0  0  0  0  0  0  0
    0.9310    0.9390    3.7800 O   0  0  0  0  0  0  0  0  0  0  0  0
   -0.3140   -0.7830    2.6300 C   0  0  0  0  0  0  0  0  0  0  0  0
   -0.2560   -0.0390    1.4110 O   0  0  0  0  0  0  0  0  0  0  0  0
   -1.4230   -0.3830    0.6620 C   0  0  0  0  0  0  0  0  0  0  0  0
   -1.4230    0.3830   -0.6620 C   0  0  0  0  0  0  0  0  0  0  0  0
    0.9310   -0.9380   -3.7800 O   0  0  0  0  0  0  0  0  0  0  0  0
    0.9120    0.4590   -3.4840 C   0  0  0  0  0  0  0  0  0  0  0  0
   -0.3140    0.7830   -2.6300 C   0  0  0  0  0  0  0  0  0  0  0  0
   -0.2560    0.0390   -1.4110 O   0  0  0  0  0  0  0  0  0  0  0  0
  1  2  1  0
  1  3  1  0
  3  4  1  0
  4  5  1  0
  5  6  1  0
  6 10  1  0
  7  8  1  0
  8  9  1  0
  9 10  1  0
M  END
>  <LigandName>  (67) 
PGE

>  <Denticity>  (67) 
1

>  <DenticityDescription>  (67) 
monodentate

>  <Delta_cm-1>  (67) 
20000

>  <DeltaConfidence>  (67) 
estimated

>  <SMILES>  (67) 
[H]OC([H])([H])C([H])([H])OC([H])([H])C([H])([H])OC([H])([H])C([H])([H])O[H]

>  <NetFormalCharge>  (67) 
0

$$$$

     RDKit          3D

 14 16  0  0  0  0  0  0  0  0999 V2000
   -3.4055   -0.8905    0.1775 C   0  0  0  0  0  0  0  0  0  0  0  0
   -2.8551    0.2973   -0.3074 C   0  0  0  0  0  0  0  0  0  0  0  0
   -1.4654    0.4763   -0.2993 C   0  0  0  0  0  0  0  0  0  0  0  0
   -0.8850    1.6590   -0.7802 C   0  0  0  0  0  0  0  0  0  0  0  0
    0.5035    1.8187   -0.7636 C   0  0  0  0  0  0  0  0  0  0  0  0
    1.3256    0.7973   -0.2661 C   0  0  0  0  0  0  0  0  0  0  0  0
    2.7195    0.9384   -0.2411 C   0  0  0  0  0  0  0  0  0  0  0  0
    3.5136   -0.0949    0.2599 C   0  0  0  0  0  0  0  0  0  0  0  0
    2.9073   -1.2610    0.7319 C   0  0  0  0  0  0  0  0  0  0  0  0
    1.5539   -1.3876    0.7031 N   0  0  0  0  0  0  0  0  0  0  0  0
    0.7498   -0.3992    0.2211 C   0  0  0  0  0  0  0  0  0  0  0  0
   -0.6446   -0.5595    0.2045 C   0  0  0  0  0  0  0  0  0  0  0  0
   -1.2145   -1.7059    0.6701 N   0  0  0  0  0  0  0  0  0  0  0  0
   -2.5616   -1.8899    0.6668 C   0  0  0  0  0  0  0  0  0  0  0  0
  1  2  2  0
  2  3  1  0
  3  4  2  0
  4  5  1  0
  5  6  2  0
  6  7  1  0
  7  8  2  0
  8  9  1  0
  9 10  2  0
 10 11  1  0
 11 12  2  0
 12 13  1  0
 13 14  2  0
 14  1  1  0
 12  3  1  0
 11  6  1  0
M  END
>  <LigandName>  (68) 
phen

>  <SMILES>  (68) 
c1cc2ccc3cccnc3c2nc1

>  <FieldStrength>  (68) 
strong

>  <Delta_cm-1>  (68) 
27000

>  <DonorAtom>  (68) 
N,N

>  <Denticity>  (68) 
2

>  <DenticityDescription>  (68) 
bidentate

>  <MolecularWeight>  (68) 
180.21

>  <HDonors>  (68) 
0

>  <HAcceptors>  (68) 
2

>  <LogP>  (68) 
2.78

>  <NumAtoms>  (68) 
22

>  <NetFormalCharge>  (68) 
0

$$$$
PO4
     RDKit          3D

  5  4  0  0  0  0  0  0  0  0999 V2000
    0.0000    0.0000    0.0000 P   0  0  0  0  0  0  0  0  0  0  0  0
    0.0000   -1.2880   -0.9110 O   0  0  0  0  0  0  0  0  0  0  0  0
    0.0000    1.2880   -0.9110 O   0  0  0  0  0  0  0  0  0  0  0  0
   -1.2880    0.0000    0.9110 O   0  0  0  0  0  0  0  0  0  0  0  0
    1.2880    0.0000    0.9110 O   0  0  0  0  0  0  0  0  0  0  0  0
  1  2  2  0
  1  3  1  0
  1  4  1  0
  1  5  1  0
M  CHG  3   3  -1   4  -1   5  -1
M  END
>  <LigandName>  (69) 
PO4

>  <Denticity>  (69) 
1

>  <DenticityDescription>  (69) 
monodentate

>  <Delta_cm-1>  (69) 
22000

>  <DeltaConfidence>  (69) 
estimated

>  <SMILES>  (69) 
O=P([O-])([O-])[O-]

>  <NetFormalCharge>  (69) 
-3

$$$$

     RDKit          3D

 19 21  0  0  0  0  0  0  0  0999 V2000
    0.0387    0.4906    1.3290 P   0  0  0  0  0  0  0  0  0  0  0  0
   -1.2072   -0.8280    0.9679 C   0  0  0  0  0  0  0  0  0  0  0  0
   -1.7908   -0.9763   -0.3021 C   0  0  0  0  0  0  0  0  0  0  0  0
   -2.7112   -2.0027   -0.5381 C   0  0  0  0  0  0  0  0  0  0  0  0
   -3.0419   -2.8962    0.4838 C   0  0  0  0  0  0  0  0  0  0  0  0
   -2.4508   -2.7657    1.7420 C   0  0  0  0  0  0  0  0  0  0  0  0
   -1.5340   -1.7368    1.9824 C   0  0  0  0  0  0  0  0  0  0  0  0
   -0.3263    1.8147    0.0881 C   0  0  0  0  0  0  0  0  0  0  0  0
   -1.6385    2.2936   -0.0483 C   0  0  0  0  0  0  0  0  0  0  0  0
   -1.9227    3.3230   -0.9500 C   0  0  0  0  0  0  0  0  0  0  0  0
   -0.8951    3.8987   -1.7018 C   0  0  0  0  0  0  0  0  0  0  0  0
    0.4200    3.4549   -1.5415 C   0  0  0  0  0  0  0  0  0  0  0  0
    0.7075    2.4263   -0.6394 C   0  0  0  0  0  0  0  0  0  0  0  0
    1.5604   -0.3276    0.6775 C   0  0  0  0  0  0  0  0  0  0  0  0
    2.6554   -0.5005    1.5346 C   0  0  0  0  0  0  0  0  0  0  0  0
    3.8214   -1.1194    1.0731 C   0  0  0  0  0  0  0  0  0  0  0  0
    3.8977   -1.5704   -0.2479 C   0  0  0  0  0  0  0  0  0  0  0  0
    2.8086   -1.3999   -1.1086 C   0  0  0  0  0  0  0  0  0  0  0  0
    1.6419   -0.7807   -0.6495 C   0  0  0  0  0  0  0  0  0  0  0  0
  1  2  1  0
  2  3  2  0
  3  4  1  0
  4  5  2  0
  5  6  1  0
  6  7  2  0
  1  8  1  0
  8  9  2  0
  9 10  1  0
 10 11  2  0
 11 12  1  0
 12 13  2  0
  1 14  1  0
 14 15  2  0
 15 16  1  0
 16 17  2  0
 17 18  1  0
 18 19  2  0
  7  2  1  0
 13  8  1  0
 19 14  1  0
M  END
>  <LigandName>  (70) 
PPh₃

>  <SMILES>  (70) 
P(c1ccccc1)(c2ccccc2)(c3ccccc3)

>  <FieldStrength>  (70) 
strong

>  <Delta_cm-1>  (70) 
28000

>  <DonorAtom>  (70) 
P

>  <Denticity>  (70) 
1

>  <DenticityDescription>  (70) 
monodentate

>  <MolecularWeight>  (70) 
262.29

>  <HDonors>  (70) 
0

>  <HAcceptors>  (70) 
0

>  <LogP>  (70) 
3.44

>  <NumAtoms>  (70) 
34

>  <NetFormalCharge>  (70) 
0

$$$$

     RDKit          3D

  6  6  0  0  0  0  0  0  0  0999 V2000
   -0.0941    1.1707   -0.0128 C   0  0  0  0  0  0  0  0  0  0  0  0
   -1.2421    0.3760    0.0241 C   0  0  0  0  0  0  0  0  0  0  0  0
   -1.1095   -1.0152    0.0388 C   0  0  0  0  0  0  0  0  0  0  0  0
    0.1272   -1.5819    0.0173 N   0  0  0  0  0  0  0  0  0  0  0  0
    1.2575   -0.8256   -0.0187 C   0  0  0  0  0  0  0  0  0  0  0  0
    1.1662    0.5689   -0.0344 C   0  0  0  0  0  0  0  0  0  0  0  0
  1  2  2  0
  2  3  1  0
  3  4  2  0
  4  5  1  0
  5  6  2  0
  6  1  1  0
M  END
>  <LigandName>  (71) 
py

>  <SMILES>  (71) 
c1ccncc1

>  <FieldStrength>  (71) 
moderate

>  <Delta_cm-1>  (71) 
22000

>  <DonorAtom>  (71) 
N

>  <Denticity>  (71) 
1

>  <DenticityDescription>  (71) 
monodentate

>  <MolecularWeight>  (71) 
79.1

>  <HDonors>  (71) 
0

>  <HAcceptors>  (71) 
1

>  <LogP>  (71) 
1.08

>  <NumAtoms>  (71) 
11

>  <NetFormalCharge>  (71) 
0

$$$$

     RDKit          3D

  5  5  0  0  0  0  0  0  0  0999 V2000
   -1.1315   -0.2769   -0.1509 C   0  0  0  0  0  0  0  0  0  0  0  0
   -0.4322    1.0580   -0.1806 C   0  0  0  0  0  0  0  0  0  0  0  0
    1.0275    0.7008   -0.3679 C   0  0  0  0  0  0  0  0  0  0  0  0
    1.2408   -0.6246    0.2131 N   0  0  0  0  0  0  0  0  0  0  0  0
   -0.0780   -1.2505    0.3552 C   0  0  0  0  0  0  0  0  0  0  0  0
  1  2  1  0
  2  3  1  0
  3  4  1  0
  4  5  1  0
  5  1  1  0
M  END
>  <LigandName>  (72) 
Pyrrolidine

>  <SMILES>  (72) 
C1CCNC1

>  <FieldStrength>  (72) 
strong

>  <Delta_cm-1>  (72) 
25000

>  <DonorAtom>  (72) 
N

>  <Denticity>  (72) 
1

>  <DenticityDescription>  (72) 
monodentate

>  <MolecularWeight>  (72) 
71.12

>  <HDonors>  (72) 
1

>  <HAcceptors>  (72) 
1

>  <LogP>  (72) 
0.37

>  <NumAtoms>  (72) 
14

>  <NetFormalCharge>  (72) 
0

$$$$

     RDKit          3D

  1  0  0  0  0  0  0  0  0  0999 V2000
    4.0000    0.0000    0.0000 S   0  0  0  0  0 15  0  0  0  0  0  0
M  CHG  1   1  -2
M  END
>  <LigandName>  (73) 
S²⁻

>  <SMILES>  (73) 
[S-2]

>  <FieldStrength>  (73) 
very weak

>  <Delta_cm-1>  (73) 
11000

>  <DonorAtom>  (73) 
S

>  <Denticity>  (73) 
1

>  <DenticityDescription>  (73) 
monodentate

>  <MolecularWeight>  (73) 
32.07

>  <HDonors>  (73) 
0

>  <HAcceptors>  (73) 
0

>  <LogP>  (73) 
-0.0

>  <NumAtoms>  (73) 
1

>  <NetFormalCharge>  (73) 
-2

$$$$
SAH
     RDKit          3D

 26 28  0  0  1  0  0  0  0  0999 V2000
    0.6630    0.7420    6.8430 N   0  0  0  0  0  0  0  0  0  0  0  0
   -0.6680    0.5580    6.2510 C   0  0  1  0  0  0  0  0  0  0  0  0
   -0.5530   -0.3150    5.0000 C   0  0  0  0  0  0  0  0  0  0  0  0
    0.3650    0.3650    3.9850 C   0  0  0  0  0  0  0  0  0  0  0  0
    0.5010   -0.6690    2.5010 S   0  0  0  0  0  0  0  0  0  0  0  0
   -1.5730   -0.1120    7.2510 C   0  0  0  0  0  0  0  0  0  0  0  0
   -1.1120   -0.8720    8.0700 O   0  0  0  0  0  0  0  0  0  0  0  0
   -2.8930    0.1320    7.2320 O   0  0  0  0  0  0  0  0  0  0  0  0
    1.6160    0.3540    1.5030 C   0  0  0  0  0  0  0  0  0  0  0  0
    1.8830   -0.3370    0.1640 C   0  0  1  0  0  0  0  0  0  0  0  0
    0.6520   -0.4860   -0.5610 O   0  0  0  0  0  0  0  0  0  0  0  0
    2.8240    0.5290   -0.6940 C   0  0  1  0  0  0  0  0  0  0  0  0
    4.0260   -0.1790   -1.0010 O   0  0  0  0  0  0  0  0  0  0  0  0
    2.0090    0.8000   -1.9860 C   0  0  1  0  0  0  0  0  0  0  0  0
    2.8440    0.7100   -3.1430 O   0  0  0  0  0  0  0  0  0  0  0  0
    0.9700   -0.3490   -1.9630 C   0  0  2  0  0  0  0  0  0  0  0  0
   -0.2230    0.0140   -2.7300 N   0  0  0  0  0  0  0  0  0  0  0  0
   -1.2970    0.7150   -2.2670 C   0  0  0  0  0  0  0  0  0  0  0  0
   -2.1760    0.8590   -3.2150 N   0  0  0  0  0  0  0  0  0  0  0  0
   -1.7240    0.2610   -4.3440 C   0  0  0  0  0  0  0  0  0  0  0  0
   -2.2280    0.0980   -5.6450 C   0  0  0  0  0  0  0  0  0  0  0  0
   -3.4620    0.6170   -5.9970 N   0  0  0  0  0  0  0  0  0  0  0  0
   -1.4930   -0.5660   -6.5310 N   0  0  0  0  0  0  0  0  0  0  0  0
   -0.3140   -1.0650   -6.2040 C   0  0  0  0  0  0  0  0  0  0  0  0
    0.1960   -0.9360   -4.9980 N   0  0  0  0  0  0  0  0  0  0  0  0
   -0.4630   -0.2830   -4.0480 C   0  0  0  0  0  0  0  0  0  0  0  0
  2  1  1  1
  2  3  1  0
  2  6  1  0
  3  4  1  0
  4  5  1  0
  5  9  1  0
  6  7  2  0
  6  8  1  0
 10  9  1  1
 10 11  1  0
 10 12  1  0
 11 16  1  0
 12 13  1  6
 12 14  1  0
 14 15  1  6
 14 16  1  0
 16 17  1  6
 17 18  1  0
 17 26  1  0
 18 19  2  0
 19 20  1  0
 20 21  2  0
 20 26  1  0
 21 22  1  0
 21 23  1  0
 23 24  2  0
 24 25  1  0
 25 26  2  0
M  END
>  <LigandName>  (74) 
SAH

>  <Denticity>  (74) 
3

>  <DenticityDescription>  (74) 
tridentate

>  <Delta_cm-1>  (74) 
22444

>  <DeltaConfidence>  (74) 
estimated

>  <SMILES>  (74) 
[H]OC(=O)[C@@]([H])(N([H])[H])C([H])([H])C([H])([H])SC([H])([H])[C@@]1([H])O[C@@]([H])(n2c([H])nc3c(N([H])[H])nc([H])nc32)[C@]([H])(O[H])[C@]1([H])O[H]

>  <NetFormalCharge>  (74) 
0

$$$$
SAM
     RDKit          3D

 27 29  0  0  1  0  0  0  0  0999 V2000
   -6.8150   -0.4360    0.9390 N   0  0  0  0  0  0  0  0  0  0  0  0
   -6.1770    0.8580    0.6610 C   0  0  2  0  0  0  0  0  0  0  0  0
   -7.1640    1.7670   -0.0260 C   0  0  0  0  0  0  0  0  0  0  0  0
   -8.0350    1.2950   -0.7370 O   0  0  0  0  0  0  0  0  0  0  0  0
   -7.0910    2.9740    0.1300 O   0  0  0  0  0  0  0  0  0  0  0  0
   -4.9640    0.6440   -0.2460 C   0  0  0  0  0  0  0  0  0  0  0  0
   -3.9080   -0.1760    0.4990 C   0  0  0  0  0  0  0  0  0  0  0  0
   -2.4690   -0.4290   -0.5760 S   0  0  0  0  0  0  0  0  0  0  0  0
   -3.1030   -1.7510   -1.6440 C   0  0  0  0  0  0  0  0  0  0  0  0
   -1.4130   -1.4000    0.5340 C   0  0  0  0  0  0  0  0  0  0  0  0
   -0.1030   -1.7410   -0.1770 C   0  0  1  0  0  0  0  0  0  0  0  0
    0.6560   -0.5420   -0.4070 O   0  0  0  0  0  0  0  0  0  0  0  0
    0.7520   -2.6640    0.7130 C   0  0  1  0  0  0  0  0  0  0  0  0
    1.0040   -3.9090    0.0580 O   0  0  0  0  0  0  0  0  0  0  0  0
    2.0750   -1.8770    0.9100 C   0  0  1  0  0  0  0  0  0  0  0  0
    3.2030   -2.7510    0.8320 O   0  0  0  0  0  0  0  0  0  0  0  0
    2.0500   -0.8960   -0.2900 C   0  0  2  0  0  0  0  0  0  0  0  0
    2.8620    0.2900   -0.0060 N   0  0  0  0  0  0  0  0  0  0  0  0
    2.4260    1.4480    0.5670 C   0  0  0  0  0  0  0  0  0  0  0  0
    3.4110    2.2920    0.6700 N   0  0  0  0  0  0  0  0  0  0  0  0
    4.5390    1.7310    0.1720 C   0  0  0  0  0  0  0  0  0  0  0  0
    5.8700    2.1550    0.0220 C   0  0  0  0  0  0  0  0  0  0  0  0
    6.2630    3.4150    0.4380 N   0  0  0  0  0  0  0  0  0  0  0  0
    6.7440    1.3170   -0.5270 N   0  0  0  0  0  0  0  0  0  0  0  0
    6.3780    0.1120   -0.9250 C   0  0  0  0  0  0  0  0  0  0  0  0
    5.1430   -0.3270   -0.8050 N   0  0  0  0  0  0  0  0  0  0  0  0
    4.2010    0.4380   -0.2630 C   0  0  0  0  0  0  0  0  0  0  0  0
  2  1  1  6
  2  3  1  0
  2  6  1  0
  3  4  2  0
  3  5  1  0
  6  7  1  0
  8  7  1  0
  8  9  1  6
  8 10  1  0
 11 10  1  1
 11 12  1  0
 11 13  1  0
 12 17  1  0
 13 14  1  6
 13 15  1  0
 15 16  1  6
 15 17  1  0
 17 18  1  1
 18 19  1  0
 18 27  1  0
 19 20  2  0
 20 21  1  0
 21 22  2  0
 21 27  1  0
 22 23  1  0
 22 24  1  0
 24 25  2  0
 25 26  1  0
 26 27  2  0
M  CHG  2   5  -1   8   1
M  END
>  <LigandName>  (75) 
SAM

>  <Denticity>  (75) 
3

>  <DenticityDescription>  (75) 
tridentate

>  <Delta_cm-1>  (75) 
22200

>  <DeltaConfidence>  (75) 
estimated

>  <SMILES>  (75) 
[H]O[C@@]1([H])[C@@]([H])(O[H])[C@]([H])(n2c([H])nc3c(N([H])[H])nc([H])nc32)O[C@]1([H])C([H])([H])[S@@+](C([H])([H])[H])C([H])([H])C([H])([H])[C@@]([H])(C(=O)[O-])N([H])[H]

>  <NetFormalCharge>  (75) 
0

$$$$

     RDKit          3D

  3  2  0  0  0  0  0  0  0  0999 V2000
    1.9000   -0.1238   -0.3739 S   0  0  0  0  0  0  0  0  0  0  0  0
    0.3954    0.1500    0.1337 C   0  0  0  0  0  0  0  0  0  0  0  0
   -0.7901    0.3656    0.5335 N   0  0  0  0  0  0  0  0  0  0  0  0
  1  2  2  0
  2  3  2  0
M  END
>  <LigandName>  (76) 
SCN⁻ (S-bound)

>  <SMILES>  (76) 
S=C=N

>  <FieldStrength>  (76) 
weak

>  <Delta_cm-1>  (76) 
14000

>  <DonorAtom>  (76) 
S

>  <Denticity>  (76) 
1

>  <DenticityDescription>  (76) 
monodentate

>  <MolecularWeight>  (76) 
59.09

>  <HDonors>  (76) 
1

>  <HAcceptors>  (76) 
2

>  <LogP>  (76) 
0.67

>  <NumAtoms>  (76) 
4

>  <NetFormalCharge>  (76) 
0

$$$$
SIA
     RDKit          3D

 21 21  0  0  1  0  0  0  0  0999 V2000
   -2.5020   -0.8320    0.1740 C   0  0  0  0  0  0  0  0  0  0  0  0
   -2.1710    0.6280    0.3420 C   0  0  2  0  0  0  0  0  0  0  0  0
   -1.7890    0.8980    1.8000 C   0  0  0  0  0  0  0  0  0  0  0  0
   -0.5860    0.0230    2.1710 C   0  0  1  0  0  0  0  0  0  0  0  0
    0.5290    0.2640    1.1480 C   0  0  2  0  0  0  0  0  0  0  0  0
   -0.0260    0.0430   -0.2590 C   0  0  2  0  0  0  0  0  0  0  0  0
    1.0880    0.2510   -1.2860 C   0  0  1  0  0  0  0  0  0  0  0  0
    0.5350    0.0210   -2.6940 C   0  0  1  0  0  0  0  0  0  0  0  0
    1.6500    0.2290   -3.7210 C   0  0  0  0  0  0  0  0  0  0  0  0
    2.6320   -0.3290    2.2260 C   0  0  0  0  0  0  0  0  0  0  0  0
    3.7630   -1.2920    2.4780 C   0  0  0  0  0  0  0  0  0  0  0  0
    1.6290   -0.6710    1.3940 N   0  0  0  0  0  0  0  0  0  0  0  0
   -2.1910   -1.4080   -0.8410 O   0  0  0  0  0  0  0  0  0  0  0  0
   -3.1410   -1.4930    1.1520 O   0  0  0  0  0  0  0  0  0  0  0  0
   -3.3120    1.4160   -0.0030 O   0  0  0  0  0  0  0  0  0  0  0  0
   -0.1230    0.3700    3.4780 O   0  0  0  0  0  0  0  0  0  0  0  0
   -1.0820    0.9680   -0.5130 O   0  0  0  0  0  0  0  0  0  0  0  0
    1.5880    1.5860   -1.1830 O   0  0  0  0  0  0  0  0  0  0  0  0
    0.0350   -1.3130   -2.7970 O   0  0  0  0  0  0  0  0  0  0  0  0
    1.1330    0.0140   -5.0350 O   0  0  0  0  0  0  0  0  0  0  0  0
    2.6240    0.7530    2.7720 O   0  0  0  0  0  0  0  0  0  0  0  0
  1  2  1  0
  1 13  2  0
  1 14  1  0
  2  3  1  0
  2 15  1  6
  2 17  1  0
  3  4  1  0
  4  5  1  0
  4 16  1  1
  5  6  1  0
  5 12  1  1
  6  7  1  0
  6 17  1  6
  7  8  1  0
  7 18  1  6
  8  9  1  0
  8 19  1  1
  9 20  1  0
 10 11  1  0
 10 12  1  0
 10 21  2  0
M  END
>  <LigandName>  (77) 
SIA

>  <Denticity>  (77) 
1

>  <DenticityDescription>  (77) 
monodentate

>  <Delta_cm-1>  (77) 
20000

>  <DeltaConfidence>  (77) 
estimated

>  <SMILES>  (77) 
[H]OC(=O)[C@]1(O[H])O[C@@]([H])([C@]([H])(O[H])[C@]([H])(O[H])C([H])([H])O[H])[C@]([H])(N([H])C(=O)C([H])([H])[H])[C@@]([H])(O[H])C1([H])[H]

>  <NetFormalCharge>  (77) 
0

$$$$
SO4
     RDKit          3D

  5  4  0  0  0  0  0  0  0  0999 V2000
    0.0000    0.0000    0.0000 S   0  0  0  0  0  0  0  0  0  0  0  0
    0.0000   -1.2010   -0.8500 O   0  0  0  0  0  0  0  0  0  0  0  0
    0.0000    1.2010   -0.8500 O   0  0  0  0  0  0  0  0  0  0  0  0
   -1.2010    0.0000    0.8500 O   0  0  0  0  0  0  0  0  0  0  0  0
    1.2010    0.0000    0.8500 O   0  0  0  0  0  0  0  0  0  0  0  0
  1  2  2  0
  1  3  2  0
  1  4  1  0
  1  5  1  0
M  CHG  2   4  -1   5  -1
M  END
>  <LigandName>  (78) 
SO4

>  <Denticity>  (78) 
1

>  <DenticityDescription>  (78) 
monodentate

>  <Delta_cm-1>  (78) 
19000

>  <DeltaConfidence>  (78) 
estimated

>  <SMILES>  (78) 
O=S(=O)([O-])[O-]

>  <NetFormalCharge>  (78) 
-2

$$$$
SR
     RDKit          2D

  1  0  0  0  0  0  0  0  0  0999 V2000
    0.0000    0.0000    0.0000 Sr  0  0  0  0  0 15  0  0  0  0  0  0
M  CHG  1   1   2
M  END
>  <LigandName>  (79) 
SR

>  <Denticity>  (79) 
1

>  <DenticityDescription>  (79) 
monodentate

>  <Delta_cm-1>  (79) 
20000

>  <DeltaConfidence>  (79) 
default

>  <SMILES>  (79) 
[Sr+2]

>  <NetFormalCharge>  (79) 
2

$$$$

     RDKit          3D

  5  5  0  0  0  0  0  0  0  0999 V2000
    0.3815   -0.9875   -0.0812 C   0  0  0  0  0  0  0  0  0  0  0  0
   -0.9850   -0.3808   -0.1098 C   0  0  0  0  0  0  0  0  0  0  0  0
   -0.6967    1.0972   -0.2702 C   0  0  0  0  0  0  0  0  0  0  0  0
    0.6060    1.3739    0.1918 O   0  0  0  0  0  0  0  0  0  0  0  0
    1.2433    0.1420    0.4432 C   0  0  0  0  0  0  0  0  0  0  0  0
  1  2  1  0
  2  3  1  0
  3  4  1  0
  4  5  1  0
  5  1  1  0
M  END
>  <LigandName>  (80) 
THF

>  <SMILES>  (80) 
C1CCOC1

>  <FieldStrength>  (80) 
moderate

>  <Delta_cm-1>  (80) 
21000

>  <DonorAtom>  (80) 
O

>  <Denticity>  (80) 
1

>  <DenticityDescription>  (80) 
monodentate

>  <MolecularWeight>  (80) 
72.11

>  <HDonors>  (80) 
0

>  <HAcceptors>  (80) 
1

>  <LogP>  (80) 
0.8

>  <NumAtoms>  (80) 
13

>  <NetFormalCharge>  (80) 
0

$$$$
TRS
     RDKit          3D

  8  7  0  0  0  0  0  0  0  0999 V2000
    0.0130   -0.2960    0.0140 C   0  0  0  0  0  0  0  0  0  0  0  0
   -0.0420    0.9860    0.8480 C   0  0  0  0  0  0  0  0  0  0  0  0
    1.2630   -0.2760   -0.8690 C   0  0  0  0  0  0  0  0  0  0  0  0
   -1.2330   -0.3840   -0.8690 C   0  0  0  0  0  0  0  0  0  0  0  0
    0.0640   -1.4600    0.9080 N   0  0  0  0  0  0  0  0  0  0  0  0
   -0.0910    2.1180   -0.0220 O   0  0  0  0  0  0  0  0  0  0  0  0
    2.4290   -0.3110   -0.0440 O   0  0  0  0  0  0  0  0  0  0  0  0
   -2.4000   -0.4030   -0.0440 O   0  0  0  0  0  0  0  0  0  0  0  0
  1  2  1  0
  1  3  1  0
  1  4  1  0
  1  5  1  0
  2  6  1  0
  3  7  1  0
  4  8  1  0
M  CHG  1   5   1
M  END
>  <LigandName>  (81) 
TRS

>  <Denticity>  (81) 
1

>  <DenticityDescription>  (81) 
monodentate

>  <Delta_cm-1>  (81) 
20000

>  <DeltaConfidence>  (81) 
estimated

>  <SMILES>  (81) 
[H]OC([H])([H])C(C([H])([H])O[H])(C([H])([H])O[H])[N+]([H])([H])[H]

>  <NetFormalCharge>  (81) 
1

$$$$
ZN
     RDKit          2D

  1  0  0  0  0  0  0  0  0  0999 V2000
    0.0000    0.0000    0.0000 Zn  0  0  0  0  0 15  0  0  0  0  0  0
M  CHG  1   1   2
M  END
>  <LigandName>  (82) 
ZN

>  <Denticity>  (82) 
1

>  <DenticityDescription>  (82) 
monodentate

>  <Delta_cm-1>  (82) 
20000

>  <DeltaConfidence>  (82) 
default

>  <SMILES>  (82) 
[Zn+2]

>  <NetFormalCharge>  (82) 
2

$$$$
