ACE
     RDKit          3D

  3  2  0  0  0  0  0  0  0  0999 V2000
   -0.1330    0.4530    0.0000 C   0  0  0  0  0  0  0  0  0  0  0  0
   -1.1130   -0.2520    0.0000 O   0  0  0  0  0  0  0  0  0  0  0  0
    1.2410   -0.1670    0.0000 C   0  0  0  0  0  0  0  0  0  0  0  0
  1  2  2  0
  1  3  1  0
M  END
>  <NetFormalCharge>  (1) 
0

$$$$

     RDKit          3D

  4  3  0  0  0  0  0  0  0  0999 V2000
   -0.6639   -0.0242    0.0650 C   0  0  0  0  0  0  0  0  0  0  0  0
    0.8150    0.0620   -0.1047 C   0  0  0  0  0  0  0  0  0  0  0  0
    1.3561    1.1651   -0.3789 O   0  0  0  0  0  0  0  0  0  0  0  0
    1.6052   -1.0631    0.0926 O   0  0  0  0  0  0  0  0  0  0  0  0
  1  2  1  0
  2  3  2  0
  2  4  1  0
M  CHG  1   4  -1
M  END
>  <LigandName>  (2) 
Acetate

>  <SMILES>  (2) 
CC(=O)[O-]

>  <FieldStrength>  (2) 
moderate

>  <MolecularWeight>  (2) 
59.04

>  <HDonors>  (2) 
0

>  <HAcceptors>  (2) 
2

>  <LogP>  (2) 
-1.24

>  <NumAtoms>  (2) 
7

>  <NetFormalCharge>  (2) 
-1

$$$$
ACT
     RDKit          3D

  4  3  0  0  0  0  0  0  0  0999 V2000
   -0.0720    0.0000    0.0000 C   0  0  0  0  0  0  0  0  0  0  0  0
   -0.6820    1.0560    0.0000 O   0  0  0  0  0  0  0  0  0  0  0  0
   -0.6820   -1.0560    0.0000 O   0  0  0  0  0  0  0  0  0  0  0  0
    1.4350    0.0000    0.0000 C   0  0  0  0  0  0  0  0  0  0  0  0
  1  2  2  0
  1  3  1  0
  1  4  1  0
M  CHG  1   3  -1
M  END
>  <NetFormalCharge>  (3) 
-1

$$$$
ADP
     RDKit          3D

 27 29  0  0  1  0  0  0  0  0999 V2000
    1.1620   -0.2210   -5.6850 P   0  0  0  0  0  0  0  0  0  0  0  0
    1.7250    1.1330   -5.4920 O   0  0  0  0  0  0  0  0  0  0  0  0
    2.1900   -1.1120   -6.5460 O   0  0  0  0  0  0  0  0  0  0  0  0
   -0.2400   -0.1130   -6.4670 O   0  0  0  0  0  0  0  0  0  0  0  0
   -0.1050    0.0250   -3.4460 P   0  0  1  0  0  0  0  0  0  0  0  0
    0.4760    1.3760   -3.2880 O   0  0  0  0  0  0  0  0  0  0  0  0
   -1.4870    0.1290   -4.2660 O   0  0  0  0  0  0  0  0  0  0  0  0
    0.9250   -0.9130   -4.2500 O   0  0  0  0  0  0  0  0  0  0  0  0
   -0.3890   -0.6090   -1.9940 O   0  0  0  0  0  0  0  0  0  0  0  0
   -1.3070    0.2640   -1.3330 C   0  0  0  0  0  0  0  0  0  0  0  0
   -1.6200   -0.2840    0.0590 C   0  0  1  0  0  0  0  0  0  0  0  0
   -0.4170   -0.3480    0.8570 O   0  0  0  0  0  0  0  0  0  0  0  0
   -2.5500    0.6830    0.8250 C   0  0  1  0  0  0  0  0  0  0  0  0
   -3.9070    0.2450    0.7390 O   0  0  0  0  0  0  0  0  0  0  0  0
   -2.0470    0.6110    2.2860 C   0  0  1  0  0  0  0  0  0  0  0  0
   -3.0800    0.1290    3.1480 O   0  0  0  0  0  0  0  0  0  0  0  0
   -0.8710   -0.3880    2.2270 C   0  0  2  0  0  0  0  0  0  0  0  0
    0.2010    0.0310    3.1320 N   0  0  0  0  0  0  0  0  0  0  0  0
    1.2310    0.8700    2.8270 C   0  0  0  0  0  0  0  0  0  0  0  0
    2.0000    1.0270    3.8650 N   0  0  0  0  0  0  0  0  0  0  0  0
    1.5090    0.3050    4.9020 C   0  0  0  0  0  0  0  0  0  0  0  0
    1.9100    0.0870    6.2310 C   0  0  0  0  0  0  0  0  0  0  0  0
    3.0440    0.6970    6.7380 N   0  0  0  0  0  0  0  0  0  0  0  0
    1.1710   -0.7140    6.9910 N   0  0  0  0  0  0  0  0  0  0  0  0
    0.0880   -1.3000    6.5160 C   0  0  0  0  0  0  0  0  0  0  0  0
   -0.3210   -1.1300    5.2770 N   0  0  0  0  0  0  0  0  0  0  0  0
    0.3530   -0.3460    4.4420 C   0  0  0  0  0  0  0  0  0  0  0  0
  1  2  2  0
  1  3  1  0
  1  4  1  0
  1  8  1  0
  5  6  2  0
  5  7  1  6
  5  8  1  0
  5  9  1  0
  9 10  1  0
 11 10  1  6
 11 12  1  0
 11 13  1  0
 12 17  1  0
 13 14  1  1
 13 15  1  0
 15 16  1  1
 15 17  1  0
 17 18  1  1
 18 19  1  0
 18 27  1  0
 19 20  2  0
 20 21  1  0
 21 22  2  0
 21 27  1  0
 22 23  1  0
 22 24  1  0
 24 25  2  0
 25 26  1  0
 26 27  2  0
M  END
>  <NetFormalCharge>  (4) 
0

$$$$
AMP
     RDKit          3D

 23 25  0  0  1  0  0  0  0  0999 V2000
   -4.7830   -0.9800    0.1050 P   0  0  0  0  0  0  0  0  0  0  0  0
   -5.8200   -0.0050   -0.3020 O   0  0  0  0  0  0  0  0  0  0  0  0
   -5.3110   -1.8280    1.3680 O   0  0  0  0  0  0  0  0  0  0  0  0
   -4.4740   -1.9780   -1.1190 O   0  0  0  0  0  0  0  0  0  0  0  0
   -3.4370   -0.1950    0.5110 O   0  0  0  0  0  0  0  0  0  0  0  0
   -2.7820    0.7270   -0.3620 C   0  0  0  0  0  0  0  0  0  0  0  0
   -1.5400    1.2900    0.3310 C   0  0  1  0  0  0  0  0  0  0  0  0
   -0.5710    0.2460    0.5230 O   0  0  0  0  0  0  0  0  0  0  0  0
   -0.8850    2.3650   -0.5580 C   0  0  1  0  0  0  0  0  0  0  0  0
   -0.8520    3.6230    0.1190 O   0  0  0  0  0  0  0  0  0  0  0  0
    0.5520    1.8390   -0.7940 C   0  0  1  0  0  0  0  0  0  0  0  0
    1.5030    2.9030   -0.7200 O   0  0  0  0  0  0  0  0  0  0  0  0
    0.7330    0.8500    0.3860 C   0  0  2  0  0  0  0  0  0  0  0  0
    1.7400   -0.1630    0.0600 N   0  0  0  0  0  0  0  0  0  0  0  0
    1.5080   -1.3690   -0.5300 C   0  0  0  0  0  0  0  0  0  0  0  0
    2.6280   -2.0170   -0.6720 N   0  0  0  0  0  0  0  0  0  0  0  0
    3.6460   -1.2700   -0.1830 C   0  0  0  0  0  0  0  0  0  0  0  0
    5.0360   -1.4470   -0.0690 C   0  0  0  0  0  0  0  0  0  0  0  0
    5.6420   -2.6060   -0.5200 N   0  0  0  0  0  0  0  0  0  0  0  0
    5.7550   -0.4740    0.4820 N   0  0  0  0  0  0  0  0  0  0  0  0
    5.1860    0.6360    0.9140 C   0  0  0  0  0  0  0  0  0  0  0  0
    3.8890    0.8450    0.8290 N   0  0  0  0  0  0  0  0  0  0  0  0
    3.0900   -0.0680    0.2870 C   0  0  0  0  0  0  0  0  0  0  0  0
  1  2  2  0
  1  3  1  0
  1  4  1  0
  1  5  1  0
  5  6  1  0
  7  6  1  6
  7  8  1  0
  7  9  1  0
  8 13  1  0
  9 10  1  1
  9 11  1  0
 11 12  1  1
 11 13  1  0
 13 14  1  6
 14 15  1  0
 14 23  1  0
 15 16  2  0
 16 17  1  0
 17 18  2  0
 17 23  1  0
 18 19  1  0
 18 20  1  0
 20 21  2  0
 21 22  1  0
 22 23  2  0
M  END
>  <NetFormalCharge>  (5) 
0

$$$$

     RDKit          3D

  7  7  0  0  0  0  0  0  0  0999 V2000
    0.1617   -1.0796    0.5620 C   0  0  0  0  0  0  0  0  0  0  0  0
   -1.2255   -0.9635    0.6991 C   0  0  0  0  0  0  0  0  0  0  0  0
   -1.8886    0.1560    0.1878 C   0  0  0  0  0  0  0  0  0  0  0  0
   -1.1653    1.1610   -0.4614 C   0  0  0  0  0  0  0  0  0  0  0  0
    0.2219    1.0479   -0.6001 C   0  0  0  0  0  0  0  0  0  0  0  0
    0.8924   -0.0737   -0.0887 C   0  0  0  0  0  0  0  0  0  0  0  0
    2.3106   -0.1909   -0.2297 N   0  0  0  0  0  0  0  0  0  0  0  0
  1  2  2  0
  2  3  1  0
  3  4  2  0
  4  5  1  0
  5  6  2  0
  6  7  1  0
  6  1  1  0
M  END
>  <LigandName>  (6) 
Aniline

>  <SMILES>  (6) 
c1ccccc1N

>  <FieldStrength>  (6) 
moderate

>  <MolecularWeight>  (6) 
93.13

>  <HDonors>  (6) 
1

>  <HAcceptors>  (6) 
1

>  <LogP>  (6) 
1.27

>  <NumAtoms>  (6) 
14

>  <NetFormalCharge>  (6) 
0

$$$$
ATP
     RDKit          3D

 31 33  0  0  1  0  0  0  0  0999 V2000
    1.2000   -0.2260   -6.8500 P   0  0  0  0  0  0  0  0  0  0  0  0
    1.7400    1.1400   -6.6720 O   0  0  0  0  0  0  0  0  0  0  0  0
    2.1230   -1.0360   -7.8910 O   0  0  0  0  0  0  0  0  0  0  0  0
   -0.3020   -0.1390   -7.4210 O   0  0  0  0  0  0  0  0  0  0  0  0
    0.2550   -0.1300   -4.4460 P   0  0  1  0  0  0  0  0  0  0  0  0
    0.8100    1.2340   -4.3040 O   0  0  0  0  0  0  0  0  0  0  0  0
   -1.2310   -0.0440   -5.0570 O   0  0  0  0  0  0  0  0  0  0  0  0
    1.1920   -0.9900   -5.4330 O   0  0  0  0  0  0  0  0  0  0  0  0
   -0.7450    0.0680   -2.0710 P   0  0  2  0  0  0  0  0  0  0  0  0
   -2.0970    0.1430   -2.6690 O   0  0  0  0  0  0  0  0  0  0  0  0
   -0.1250    1.5490   -1.9570 O   0  0  0  0  0  0  0  0  0  0  0  0
    0.2030   -0.8400   -3.0020 O   0  0  0  0  0  0  0  0  0  0  0  0
   -0.8440   -0.5870   -0.6040 O   0  0  0  0  0  0  0  0  0  0  0  0
   -1.6940    0.2600    0.1700 C   0  0  0  0  0  0  0  0  0  0  0  0
   -1.8310   -0.3090    1.5840 C   0  0  1  0  0  0  0  0  0  0  0  0
   -0.5420   -0.3550    2.2340 O   0  0  0  0  0  0  0  0  0  0  0  0
   -2.6830    0.6300    2.4650 C   0  0  1  0  0  0  0  0  0  0  0  0
   -4.0330    0.1650    2.5340 O   0  0  0  0  0  0  0  0  0  0  0  0
   -2.0110    0.5550    3.8560 C   0  0  1  0  0  0  0  0  0  0  0  0
   -2.9260    0.0430    4.8270 O   0  0  0  0  0  0  0  0  0  0  0  0
   -0.8300   -0.4180    3.6470 C   0  0  2  0  0  0  0  0  0  0  0  0
    0.3320    0.0150    4.4250 N   0  0  0  0  0  0  0  0  0  0  0  0
    1.3020    0.8790    4.0120 C   0  0  0  0  0  0  0  0  0  0  0  0
    2.1840    1.0420    4.9550 N   0  0  0  0  0  0  0  0  0  0  0  0
    1.8330    0.3000    6.0330 C   0  0  0  0  0  0  0  0  0  0  0  0
    2.3910    0.0770    7.3030 C   0  0  0  0  0  0  0  0  0  0  0  0
    3.5640    0.7060    7.6810 N   0  0  0  0  0  0  0  0  0  0  0  0
    1.7630   -0.7470    8.1350 N   0  0  0  0  0  0  0  0  0  0  0  0
    0.6440   -1.3520    7.7830 C   0  0  0  0  0  0  0  0  0  0  0  0
    0.0880   -1.1780    6.6020 N   0  0  0  0  0  0  0  0  0  0  0  0
    0.6440   -0.3710    5.7040 C   0  0  0  0  0  0  0  0  0  0  0  0
  1  2  2  0
  1  3  1  0
  1  4  1  0
  1  8  1  0
  5  6  2  0
  5  7  1  6
  5  8  1  0
  5 12  1  0
  9 10  2  0
  9 11  1  1
  9 12  1  0
  9 13  1  0
 13 14  1  0
 15 14  1  6
 15 16  1  0
 15 17  1  0
 16 21  1  0
 17 18  1  1
 17 19  1  0
 19 20  1  1
 19 21  1  0
 21 22  1  1
 22 23  1  0
 22 31  1  0
 23 24  2  0
 24 25  1  0
 25 26  2  0
 25 31  1  0
 26 27  1  0
 26 28  1  0
 28 29  2  0
 29 30  1  0
 30 31  2  0
M  END
>  <NetFormalCharge>  (7) 
0

$$$$
BA
     RDKit          2D

  1  0  0  0  0  0  0  0  0  0999 V2000
    0.0000    0.0000    0.0000 Ba  0  0  0  0  0 15  0  0  0  0  0  0
M  CHG  1   1   2
M  END
>  <NetFormalCharge>  (8) 
2

$$$$

     RDKit          3D

 12 13  0  0  0  0  0  0  0  0999 V2000
   -2.8654   -0.7911   -0.7581 C   0  0  0  0  0  0  0  0  0  0  0  0
   -3.5395    0.1222    0.0507 C   0  0  0  0  0  0  0  0  0  0  0  0
   -2.8029    0.9966    0.8482 C   0  0  0  0  0  0  0  0  0  0  0  0
   -1.4444    0.9521    0.8308 N   0  0  0  0  0  0  0  0  0  0  0  0
   -0.7486    0.0732    0.0532 C   0  0  0  0  0  0  0  0  0  0  0  0
   -1.4688   -0.8233   -0.7637 C   0  0  0  0  0  0  0  0  0  0  0  0
    0.7377    0.1100    0.1111 C   0  0  0  0  0  0  0  0  0  0  0  0
    1.5627   -0.7480   -0.6456 C   0  0  0  0  0  0  0  0  0  0  0  0
    2.9513   -0.6468   -0.5315 C   0  0  0  0  0  0  0  0  0  0  0  0
    3.5144    0.2973    0.3255 C   0  0  0  0  0  0  0  0  0  0  0  0
    2.6756    1.1326    1.0616 C   0  0  0  0  0  0  0  0  0  0  0  0
    1.3265    1.0209    0.9388 N   0  0  0  0  0  0  0  0  0  0  0  0
  1  2  2  0
  2  3  1  0
  3  4  2  0
  4  5  1  0
  5  6  2  0
  5  7  1  0
  7  8  2  0
  8  9  1  0
  9 10  2  0
 10 11  1  0
 11 12  2  0
  6  1  1  0
 12  7  1  0
M  END
>  <LigandName>  (9) 
bipy

>  <SMILES>  (9) 
c1ccnc(c1)c2ccccn2

>  <FieldStrength>  (9) 
strong

>  <MolecularWeight>  (9) 
156.19

>  <HDonors>  (9) 
0

>  <HAcceptors>  (9) 
2

>  <LogP>  (9) 
2.14

>  <NumAtoms>  (9) 
20

>  <NetFormalCharge>  (9) 
0

$$$$
BMA
     RDKit          3D

 12 12  0  0  1  0  0  0  0  0999 V2000
   -1.4420   -0.5780   -0.5040 C   0  0  2  0  0  0  0  0  0  0  0  0
   -0.4930   -0.1940   -1.6420 C   0  0  2  0  0  0  0  0  0  0  0  0
    0.9450   -0.5150   -1.2230 C   0  0  2  0  0  0  0  0  0  0  0  0
    1.2270    0.1680    0.1190 C   0  0  1  0  0  0  0  0  0  0  0  0
    0.1490   -0.2440    1.1240 C   0  0  1  0  0  0  0  0  0  0  0  0
    0.4420    0.4050    2.4780 C   0  0  0  0  0  0  0  0  0  0  0  0
   -2.7890   -0.3110   -0.8990 O   0  0  0  0  0  0  0  0  0  0  0  0
   -0.6140    1.2020   -1.9150 O   0  0  0  0  0  0  0  0  0  0  0  0
    1.8530   -0.0270   -2.2130 O   0  0  0  0  0  0  0  0  0  0  0  0
    2.5100   -0.2350    0.6010 O   0  0  0  0  0  0  0  0  0  0  0  0
   -1.1300    0.1810    0.6610 O   0  0  0  0  0  0  0  0  0  0  0  0
   -0.5610    0.0180    3.4190 O   0  0  0  0  0  0  0  0  0  0  0  0
  1  2  1  0
  1  7  1  6
  1 11  1  0
  2  3  1  0
  2  8  1  1
  3  4  1  0
  3  9  1  6
  4  5  1  0
  4 10  1  1
  5  6  1  1
  5 11  1  0
  6 12  1  0
M  END
>  <NetFormalCharge>  (10) 
0

$$$$
BR
     RDKit          2D

  1  0  0  0  0  0  0  0  0  0999 V2000
    0.0000    0.0000    0.0000 Br  0  0  0  0  0  0  0  0  0  0  0  0
M  CHG  1   1  -1
M  END
>  <NetFormalCharge>  (11) 
-1

$$$$

     RDKit          3D

  1  0  0  0  0  0  0  0  0  0999 V2000
    4.0000    0.0000    0.0000 Br  0  0  0  0  0  0  0  0  0  0  0  0
M  CHG  1   1  -1
M  END
>  <LigandName>  (12) 
Br⁻

>  <SMILES>  (12) 
[Br-]

>  <FieldStrength>  (12) 
very weak

>  <MolecularWeight>  (12) 
79.9

>  <HDonors>  (12) 
0

>  <HAcceptors>  (12) 
0

>  <LogP>  (12) 
-3.0

>  <NumAtoms>  (12) 
1

>  <NetFormalCharge>  (12) 
-1

$$$$

     RDKit          3D

  6  5  0  0  0  0  0  0  0  0999 V2000
   -1.2312   -1.2373    0.0328 O   0  0  0  0  0  0  0  0  0  0  0  0
   -0.7276   -0.0837    0.0138 C   0  0  0  0  0  0  0  0  0  0  0  0
   -1.5594    1.0292    0.0192 O   0  0  0  0  0  0  0  0  0  0  0  0
    0.7276    0.0837   -0.0138 C   0  0  0  0  0  0  0  0  0  0  0  0
    1.2312    1.2373   -0.0328 O   0  0  0  0  0  0  0  0  0  0  0  0
    1.5594   -1.0292   -0.0192 O   0  0  0  0  0  0  0  0  0  0  0  0
  1  2  2  0
  2  3  1  0
  2  4  1  0
  4  5  2  0
  4  6  1  0
M  CHG  2   3  -1   6  -1
M  END
>  <LigandName>  (13) 
C₂O₄²⁻

>  <SMILES>  (13) 
O=C([O-])C(=O)[O-]

>  <FieldStrength>  (13) 
moderate

>  <MolecularWeight>  (13) 
88.02

>  <HDonors>  (13) 
0

>  <HAcceptors>  (13) 
4

>  <LogP>  (13) 
-3.51

>  <NumAtoms>  (13) 
6

>  <NetFormalCharge>  (13) 
-2

$$$$
CA
     RDKit          2D

  1  0  0  0  0  0  0  0  0  0999 V2000
    0.0000    0.0000    0.0000 Ca  0  0  0  0  0 15  0  0  0  0  0  0
M  CHG  1   1   2
M  END
>  <NetFormalCharge>  (14) 
2

$$$$

     RDKit          3D

  1  0  0  0  0  0  0  0  0  0999 V2000
    0.0007   -0.0021    0.2774 C   0  0  0  0  0  0  0  0  0  0  0  0
M  CHG  1   1  -1
M  END
>  <LigandName>  (15) 
CH₃⁻

>  <SMILES>  (15) 
[CH3-]

>  <FieldStrength>  (15) 
very strong

>  <MolecularWeight>  (15) 
15.03

>  <HDonors>  (15) 
0

>  <HAcceptors>  (15) 
0

>  <LogP>  (15) 
0.45

>  <NumAtoms>  (15) 
4

>  <NetFormalCharge>  (15) 
-1

$$$$
CL
     RDKit          2D

  1  0  0  0  0  0  0  0  0  0999 V2000
    0.0000    0.0000    0.0000 Cl  0  0  0  0  0  0  0  0  0  0  0  0
M  CHG  1   1  -1
M  END
>  <NetFormalCharge>  (16) 
-1

$$$$

     RDKit          3D

  1  0  0  0  0  0  0  0  0  0999 V2000
    4.0000    0.0000    0.0000 Cl  0  0  0  0  0  0  0  0  0  0  0  0
M  CHG  1   1  -1
M  END
>  <LigandName>  (17) 
Cl⁻

>  <SMILES>  (17) 
[Cl-]

>  <FieldStrength>  (17) 
weak

>  <MolecularWeight>  (17) 
35.45

>  <HDonors>  (17) 
0

>  <HAcceptors>  (17) 
0

>  <LogP>  (17) 
-3.0

>  <NumAtoms>  (17) 
1

>  <NetFormalCharge>  (17) 
-1

$$$$

     RDKit          3D

  2  1  0  0  0  0  0  0  0  0999 V2000
    0.5786    0.0000    0.0000 C   0  0  0  0  0  0  0  0  0  0  0  0
   -0.5786    0.0000    0.0000 N   0  0  0  0  0  0  0  0  0  0  0  0
  1  2  3  0
M  CHG  1   1  -1
M  END
>  <LigandName>  (18) 
CN⁻

>  <SMILES>  (18) 
[C-]#N

>  <FieldStrength>  (18) 
very strong

>  <MolecularWeight>  (18) 
26.02

>  <HDonors>  (18) 
0

>  <HAcceptors>  (18) 
1

>  <LogP>  (18) 
0.1

>  <NumAtoms>  (18) 
2

>  <NetFormalCharge>  (18) 
-1

$$$$

     RDKit          3D

  2  1  0  0  0  0  0  0  0  0999 V2000
    0.5641    0.0000    0.0000 C   0  0  0  0  0  0  0  0  0  0  0  0
   -0.5641    0.0000    0.0000 O   0  0  0  0  0  0  0  0  0  0  0  0
  1  2  3  0
M  CHG  2   1  -1   2   1
M  END
>  <LigandName>  (19) 
CO

>  <SMILES>  (19) 
[C-]#[O+]

>  <FieldStrength>  (19) 
very strong

>  <MolecularWeight>  (19) 
28.01

>  <HDonors>  (19) 
0

>  <HAcceptors>  (19) 
0

>  <LogP>  (19) 
-0.04

>  <NumAtoms>  (19) 
2

>  <NetFormalCharge>  (19) 
0

$$$$
COA
     RDKit          3D

 48 50  0  0  1  0  0  0  0  0999 V2000
    5.3190    1.8440   -8.0480 N   0  0  0  0  0  0  0  0  0  0  0  0
    4.0990    1.8020   -8.5490 C   0  0  0  0  0  0  0  0  0  0  0  0
    3.0500    1.4650   -7.8290 N   0  0  0  0  0  0  0  0  0  0  0  0
    3.1840    1.1430   -6.5460 C   0  0  0  0  0  0  0  0  0  0  0  0
    4.4630    1.1770   -5.9640 C   0  0  0  0  0  0  0  0  0  0  0  0
    5.5510    1.5430   -6.7740 C   0  0  0  0  0  0  0  0  0  0  0  0
    6.8340    1.5900   -6.2580 N   0  0  0  0  0  0  0  0  0  0  0  0
    4.3200    0.8170   -4.6660 N   0  0  0  0  0  0  0  0  0  0  0  0
    3.0660    0.5750   -4.4190 C   0  0  0  0  0  0  0  0  0  0  0  0
    2.3240    0.7650   -5.5470 N   0  0  0  0  0  0  0  0  0  0  0  0
    0.8740    0.5920   -5.6710 C   0  0  1  0  0  0  0  0  0  0  0  0
    0.5220   -0.8870   -5.9720 C   0  0  2  0  0  0  0  0  0  0  0  0
    0.5740   -1.1480   -7.3760 O   0  0  0  0  0  0  0  0  0  0  0  0
   -0.9330   -0.9880   -5.4450 C   0  0  2  0  0  0  0  0  0  0  0  0
   -1.8640   -0.8460   -6.5190 O   0  0  0  0  0  0  0  0  0  0  0  0
   -2.7560   -2.1860   -6.5420 P   0  0  0  0  0  0  0  0  0  0  0  0
   -3.4630   -2.3310   -5.2500 O   0  0  0  0  0  0  0  0  0  0  0  0
   -3.8330   -2.0940   -7.7350 O   0  0  0  0  0  0  0  0  0  0  0  0
   -1.8020   -3.4620   -6.7770 O   0  0  0  0  0  0  0  0  0  0  0  0
   -1.0550    0.1880   -4.4570 C   0  0  2  0  0  0  0  0  0  0  0  0
    0.2230    0.8430   -4.4070 O   0  0  0  0  0  0  0  0  0  0  0  0
   -1.4260   -0.3350   -3.0680 C   0  0  0  0  0  0  0  0  0  0  0  0
   -1.5300    0.7600   -2.1580 O   0  0  0  0  0  0  0  0  0  0  0  0
   -1.9210    0.1400   -0.7240 P   0  0  2  0  0  0  0  0  0  0  0  0
   -0.8660   -0.8030   -0.2920 O   0  0  0  0  0  0  0  0  0  0  0  0
   -3.3240   -0.6400   -0.8420 O   0  0  0  0  0  0  0  0  0  0  0  0
   -2.0550    1.3260    0.3550 O   0  0  0  0  0  0  0  0  0  0  0  0
   -2.4450    0.6370    1.7570 P   0  0  1  0  0  0  0  0  0  0  0  0
   -3.7270   -0.0870    1.6110 O   0  0  0  0  0  0  0  0  0  0  0  0
   -1.2890   -0.3970    2.1860 O   0  0  0  0  0  0  0  0  0  0  0  0
   -2.5960    1.7720    2.8890 O   0  0  0  0  0  0  0  0  0  0  0  0
   -3.1010    2.1280    5.2250 C   0  0  0  0  0  0  0  0  0  0  0  0
   -2.9410    1.1010    4.1030 C   0  0  0  0  0  0  0  0  0  0  0  0
   -1.7840    2.8840    5.4160 C   0  0  0  0  0  0  0  0  0  0  0  0
   -4.2080    3.1180    4.8570 C   0  0  0  0  0  0  0  0  0  0  0  0
   -3.4700    1.4100    6.5250 C   0  0  1  0  0  0  0  0  0  0  0  0
   -4.7640    0.8190    6.3910 O   0  0  0  0  0  0  0  0  0  0  0  0
   -2.4530    0.3350    6.8110 C   0  0  0  0  0  0  0  0  0  0  0  0
   -2.7580   -0.8320    6.6990 O   0  0  0  0  0  0  0  0  0  0  0  0
   -1.2050    0.6720    7.1910 N   0  0  0  0  0  0  0  0  0  0  0  0
   -0.2400   -0.3700    7.5470 C   0  0  0  0  0  0  0  0  0  0  0  0
    1.0890    0.2750    7.9380 C   0  0  0  0  0  0  0  0  0  0  0  0
    2.0810   -0.7970    8.3050 C   0  0  0  0  0  0  0  0  0  0  0  0
    1.7560   -1.9650    8.2580 O   0  0  0  0  0  0  0  0  0  0  0  0
    3.3290   -0.4600    8.6850 N   0  0  0  0  0  0  0  0  0  0  0  0
    4.2940   -1.5040    9.0410 C   0  0  0  0  0  0  0  0  0  0  0  0
    5.6240   -0.8570    9.4320 C   0  0  0  0  0  0  0  0  0  0  0  0
    6.8180   -2.1500    9.8730 S   0  0  0  0  0  0  0  0  0  0  0  0
  1  2  2  0
  1  6  1  0
  2  3  1  0
  3  4  2  0
  4  5  1  0
  4 10  1  0
  5  6  2  0
  5  8  1  0
  6  7  1  0
  8  9  2  0
  9 10  1  0
 11 10  1  1
 11 12  1  0
 11 21  1  0
 12 13  1  6
 12 14  1  0
 14 15  1  6
 14 20  1  0
 15 16  1  0
 16 17  2  0
 16 18  1  0
 16 19  1  0
 20 21  1  0
 20 22  1  1
 22 23  1  0
 24 23  1  0
 24 25  2  0
 24 26  1  6
 24 27  1  0
 28 27  1  0
 28 29  2  0
 28 30  1  1
 28 31  1  0
 31 33  1  0
 32 33  1  0
 32 34  1  0
 32 35  1  0
 32 36  1  0
 36 37  1  6
 36 38  1  0
 38 39  2  0
 38 40  1  0
 40 41  1  0
 41 42  1  0
 42 43  1  0
 43 44  2  0
 43 45  1  0
 45 46  1  0
 46 47  1  0
 47 48  1  0
M  END
>  <NetFormalCharge>  (20) 
0

$$$$
CS
     RDKit          2D

  1  0  0  0  0  0  0  0  0  0999 V2000
    0.0000    0.0000    0.0000 Cs  0  0  0  0  0 15  0  0  0  0  0  0
M  CHG  1   1   1
M  END
>  <NetFormalCharge>  (21) 
1

$$$$
CU
     RDKit          2D

  1  0  0  0  0  0  0  0  0  0999 V2000
    0.0000    0.0000    0.0000 Cu  0  0  0  0  0 15  0  0  0  0  0  0
M  CHG  1   1   2
M  END
>  <NetFormalCharge>  (22) 
2

$$$$

     RDKit          3D

  5  4  0  0  0  0  0  0  0  0999 V2000
   -0.9273   -0.9152   -0.5303 C   0  0  0  0  0  0  0  0  0  0  0  0
    0.1105   -0.0270   -0.0010 N   0  0  0  0  0  0  0  0  0  0  0  0
   -0.2275    1.2741    0.5766 C   0  0  0  0  0  0  0  0  0  0  0  0
    1.4885   -0.4247   -0.0418 C   0  0  0  0  0  0  0  0  0  0  0  0
    1.8254   -1.5362   -0.5301 O   0  0  0  0  0  0  0  0  0  0  0  0
  1  2  1  0
  2  3  1  0
  2  4  1  0
  4  5  2  0
M  END
>  <LigandName>  (23) 
DMF

>  <SMILES>  (23) 
CN(C)C=O

>  <FieldStrength>  (23) 
moderate-strong

>  <MolecularWeight>  (23) 
73.09

>  <HDonors>  (23) 
0

>  <HAcceptors>  (23) 
1

>  <LogP>  (23) 
-0.3

>  <NumAtoms>  (23) 
12

>  <NetFormalCharge>  (23) 
0

$$$$
DMS
     RDKit          3D

  4  3  0  0  0  0  0  0  0  0999 V2000
    0.1540   -0.3710    0.0000 S   0  0  0  0  0  0  0  0  0  0  0  0
    1.3900    0.3310    0.0010 O   0  0  0  0  0  0  0  0  0  0  0  0
   -0.8640    0.1960    1.3890 C   0  0  0  0  0  0  0  0  0  0  0  0
   -0.8620    0.1960   -1.3900 C   0  0  0  0  0  0  0  0  0  0  0  0
  1  2  2  0
  1  3  1  0
  1  4  1  0
M  END
>  <NetFormalCharge>  (24) 
0

$$$$

     RDKit          3D

  4  3  0  0  0  0  0  0  0  0999 V2000
   -1.4200   -0.1040    0.0402 C   0  0  0  0  0  0  0  0  0  0  0  0
    0.1461    0.5203    0.6757 S   0  0  0  0  0  0  0  0  0  0  0  0
    0.1774    1.9641    0.1928 O   0  0  0  0  0  0  0  0  0  0  0  0
    1.3889   -0.2933   -0.3440 C   0  0  0  0  0  0  0  0  0  0  0  0
  1  2  1  0
  2  3  2  0
  2  4  1  0
M  END
>  <LigandName>  (25) 
DMSO

>  <SMILES>  (25) 
CS(=O)C

>  <FieldStrength>  (25) 
moderate

>  <MolecularWeight>  (25) 
78.14

>  <HDonors>  (25) 
0

>  <HAcceptors>  (25) 
1

>  <LogP>  (25) 
-0.01

>  <NumAtoms>  (25) 
10

>  <NetFormalCharge>  (25) 
0

$$$$
EDO
     RDKit          3D

  4  3  0  0  0  0  0  0  0  0999 V2000
   -0.6090   -0.2820    0.7100 C   0  0  0  0  0  0  0  0  0  0  0  0
    0.5570    0.1670    1.4020 O   0  0  0  0  0  0  0  0  0  0  0  0
   -0.6090    0.2820   -0.7100 C   0  0  0  0  0  0  0  0  0  0  0  0
    0.5570   -0.1670   -1.4020 O   0  0  0  0  0  0  0  0  0  0  0  0
  1  2  1  0
  1  3  1  0
  3  4  1  0
M  END
>  <NetFormalCharge>  (26) 
0

$$$$

     RDKit          3D

  4  3  0  0  0  0  0  0  0  0999 V2000
    1.3774    0.7652    0.1347 N   0  0  0  0  0  0  0  0  0  0  0  0
    0.7336   -0.5379   -0.0047 C   0  0  0  0  0  0  0  0  0  0  0  0
   -0.7810   -0.4173    0.1767 C   0  0  0  0  0  0  0  0  0  0  0  0
   -1.3667    0.3809   -0.8968 N   0  0  0  0  0  0  0  0  0  0  0  0
  1  2  1  0
  2  3  1  0
  3  4  1  0
M  END
>  <LigandName>  (27) 
en

>  <SMILES>  (27) 
NCCN

>  <FieldStrength>  (27) 
moderate-strong

>  <MolecularWeight>  (27) 
60.1

>  <HDonors>  (27) 
2

>  <HAcceptors>  (27) 
2

>  <LogP>  (27) 
-1.1

>  <NumAtoms>  (27) 
12

>  <NetFormalCharge>  (27) 
0

$$$$

     RDKit          3D

  3  2  0  0  0  0  0  0  0  0999 V2000
   -0.9046   -0.1924   -0.0865 C   0  0  0  0  0  0  0  0  0  0  0  0
    0.4478    0.4776    0.1230 C   0  0  0  0  0  0  0  0  0  0  0  0
    1.4523   -0.2302   -0.5510 O   0  0  0  0  0  0  0  0  0  0  0  0
  1  2  1  0
  2  3  1  0
M  END
>  <LigandName>  (28) 
EtOH

>  <SMILES>  (28) 
CCO

>  <FieldStrength>  (28) 
moderate

>  <MolecularWeight>  (28) 
46.07

>  <HDonors>  (28) 
1

>  <HAcceptors>  (28) 
1

>  <LogP>  (28) 
-0.0

>  <NumAtoms>  (28) 
9

>  <NetFormalCharge>  (28) 
0

$$$$
FAD
     RDKit          3D

 53 58  0  0  1  0  0  0  0  0999 V2000
   -1.6480   -0.6290   -3.2290 P   0  0  1  0  0  0  0  0  0  0  0  0
   -3.0350   -1.0880   -2.9920 O   0  0  0  0  0  0  0  0  0  0  0  0
   -0.6780   -1.9060   -3.3780 O   0  0  0  0  0  0  0  0  0  0  0  0
   -1.5950    0.2450   -4.5800 O   0  0  0  0  0  0  0  0  0  0  0  0
   -2.0360   -0.6050   -5.6400 C   0  0  0  0  0  0  0  0  0  0  0  0
   -2.0090    0.1690   -6.9590 C   0  0  1  0  0  0  0  0  0  0  0  0
   -0.6650    0.5830   -7.2560 O   0  0  0  0  0  0  0  0  0  0  0  0
   -2.4760   -0.7410   -8.1110 C   0  0  1  0  0  0  0  0  0  0  0  0
   -3.6390   -0.2030   -8.7440 O   0  0  0  0  0  0  0  0  0  0  0  0
   -1.2770   -0.7480   -9.0950 C   0  0  1  0  0  0  0  0  0  0  0  0
   -1.7280   -0.6720  -10.4490 O   0  0  0  0  0  0  0  0  0  0  0  0
   -0.5180    0.5410   -8.6920 C   0  0  2  0  0  0  0  0  0  0  0  0
    0.8950    0.4490   -9.0630 N   0  0  0  0  0  0  0  0  0  0  0  0
    1.8890   -0.1180   -8.3220 C   0  0  0  0  0  0  0  0  0  0  0  0
    3.0230   -0.0240   -8.9530 N   0  0  0  0  0  0  0  0  0  0  0  0
    2.8300    0.6060  -10.1360 C   0  0  0  0  0  0  0  0  0  0  0  0
    3.6630    0.9790  -11.2050 C   0  0  0  0  0  0  0  0  0  0  0  0
    5.0180    0.6980  -11.1780 N   0  0  0  0  0  0  0  0  0  0  0  0
    3.1190    1.6070  -12.2420 N   0  0  0  0  0  0  0  0  0  0  0  0
    1.8270    1.8780  -12.2770 C   0  0  0  0  0  0  0  0  0  0  0  0
    1.0100    1.5490  -11.2990 N   0  0  0  0  0  0  0  0  0  0  0  0
    1.4620    0.9140  -10.2230 C   0  0  0  0  0  0  0  0  0  0  0  0
   -1.9330    0.3600    8.3210 N   0  0  0  0  0  0  0  0  0  0  0  0
   -2.8020    1.0330    9.0700 C   0  0  0  0  0  0  0  0  0  0  0  0
   -3.9700    1.0430    8.7210 O   0  0  0  0  0  0  0  0  0  0  0  0
   -2.4740    1.7010   10.1850 N   0  0  0  0  0  0  0  0  0  0  0  0
   -1.1970    1.7340   10.6340 C   0  0  0  0  0  0  0  0  0  0  0  0
   -0.8970    2.3400   11.6440 O   0  0  0  0  0  0  0  0  0  0  0  0
   -0.1840    1.0030    9.8420 C   0  0  0  0  0  0  0  0  0  0  0  0
    1.0780    0.9680   10.1850 N   0  0  0  0  0  0  0  0  0  0  0  0
    1.9690    0.2950    9.4460 C   0  0  0  0  0  0  0  0  0  0  0  0
    3.3240    0.2700    9.8330 C   0  0  0  0  0  0  0  0  0  0  0  0
    4.2320   -0.4120    9.0820 C   0  0  0  0  0  0  0  0  0  0  0  0
    5.6790   -0.4340    9.5020 C   0  0  0  0  0  0  0  0  0  0  0  0
    3.8410   -1.0850    7.9300 C   0  0  0  0  0  0  0  0  0  0  0  0
    4.8660   -1.8320    7.1160 C   0  0  0  0  0  0  0  0  0  0  0  0
    2.5230   -1.0820    7.5290 C   0  0  0  0  0  0  0  0  0  0  0  0
    1.5720   -0.3930    8.2780 C   0  0  0  0  0  0  0  0  0  0  0  0
    0.2530   -0.3820    7.8770 N   0  0  0  0  0  0  0  0  0  0  0  0
   -0.6490    0.3010    8.6340 C   0  0  0  0  0  0  0  0  0  0  0  0
   -0.1680   -1.0930    6.6680 C   0  0  0  0  0  0  0  0  0  0  0  0
   -0.0700   -0.1530    5.4640 C   0  0  2  0  0  0  0  0  0  0  0  0
   -0.9190    0.9770    5.6730 O   0  0  0  0  0  0  0  0  0  0  0  0
   -0.5110   -0.8950    4.2010 C   0  0  2  0  0  0  0  0  0  0  0  0
    0.3370   -2.0260    3.9920 O   0  0  0  0  0  0  0  0  0  0  0  0
   -0.4130    0.0440    2.9970 C   0  0  2  0  0  0  0  0  0  0  0  0
   -1.2620    1.1740    3.2060 O   0  0  0  0  0  0  0  0  0  0  0  0
   -0.8540   -0.6970    1.7340 C   0  0  0  0  0  0  0  0  0  0  0  0
   -0.7630    0.1790    0.6100 O   0  0  0  0  0  0  0  0  0  0  0  0
   -1.2390   -0.6620   -0.6770 P   0  0  1  0  0  0  0  0  0  0  0  0
   -0.3540   -1.8350   -0.8530 O   0  0  0  0  0  0  0  0  0  0  0  0
   -2.7540   -1.1600   -0.4620 O   0  0  0  0  0  0  0  0  0  0  0  0
   -1.1610    0.2700   -1.9870 O   0  0  0  0  0  0  0  0  0  0  0  0
  1  2  2  0
  1  3  1  6
  1  4  1  0
  1 53  1  0
  4  5  1  0
  6  5  1  1
  6  7  1  0
  6  8  1  0
  7 12  1  0
  8  9  1  6
  8 10  1  0
 10 11  1  6
 10 12  1  0
 12 13  1  1
 13 14  1  0
 13 22  1  0
 14 15  2  0
 15 16  1  0
 16 17  2  0
 16 22  1  0
 17 18  1  0
 17 19  1  0
 19 20  2  0
 20 21  1  0
 21 22  2  0
 23 24  1  0
 23 40  2  0
 24 25  2  0
 24 26  1  0
 26 27  1  0
 27 28  2  0
 27 29  1  0
 29 30  2  0
 29 40  1  0
 30 31  1  0
 31 32  1  0
 31 38  2  0
 32 33  2  0
 33 34  1  0
 33 35  1  0
 35 36  1  0
 35 37  2  0
 37 38  1  0
 38 39  1  0
 39 40  1  0
 39 41  1  0
 41 42  1  0
 42 43  1  1
 42 44  1  0
 44 45  1  6
 44 46  1  0
 46 47  1  1
 46 48  1  0
 48 49  1  0
 50 49  1  0
 50 51  2  0
 50 52  1  1
 50 53  1  0
M  END
>  <NetFormalCharge>  (29) 
0

$$$$
FE
     RDKit          2D

  1  0  0  0  0  0  0  0  0  0999 V2000
    0.0000    0.0000    0.0000 Fe  0  0  0  0  0 15  0  0  0  0  0  0
M  CHG  1   1   3
M  END
>  <NetFormalCharge>  (30) 
3

$$$$

     RDKit          3D

  1  0  0  0  0  0  0  0  0  0999 V2000
    4.0000    0.0000    0.0000 F   0  0  0  0  0  0  0  0  0  0  0  0
M  CHG  1   1  -1
M  END
>  <LigandName>  (31) 
F⁻

>  <SMILES>  (31) 
[F-]

>  <FieldStrength>  (31) 
weak

>  <MolecularWeight>  (31) 
19.0

>  <HDonors>  (31) 
0

>  <HAcceptors>  (31) 
0

>  <LogP>  (31) 
-3.0

>  <NumAtoms>  (31) 
1

>  <NetFormalCharge>  (31) 
-1

$$$$
FMN
     RDKit          3D

 31 33  0  0  1  0  0  0  0  0999 V2000
    2.1180   -2.4930    0.5310 N   0  0  0  0  0  0  0  0  0  0  0  0
    2.7130   -3.6380    0.2060 C   0  0  0  0  0  0  0  0  0  0  0  0
    2.1220   -4.6770    0.4450 O   0  0  0  0  0  0  0  0  0  0  0  0
    3.9210   -3.7210   -0.3680 N   0  0  0  0  0  0  0  0  0  0  0  0
    4.6360   -2.6100   -0.6640 C   0  0  0  0  0  0  0  0  0  0  0  0
    5.7320   -2.6820   -1.1850 O   0  0  0  0  0  0  0  0  0  0  0  0
    4.0270   -1.3050   -0.3250 C   0  0  0  0  0  0  0  0  0  0  0  0
    4.6310   -0.1700   -0.5660 N   0  0  0  0  0  0  0  0  0  0  0  0
    4.0510    0.9950   -0.2460 C   0  0  0  0  0  0  0  0  0  0  0  0
    4.7180    2.2060   -0.5140 C   0  0  0  0  0  0  0  0  0  0  0  0
    4.1310    3.3920   -0.1900 C   0  0  0  0  0  0  0  0  0  0  0  0
    4.8500    4.6830   -0.4800 C   0  0  0  0  0  0  0  0  0  0  0  0
    2.8740    3.4230    0.4050 C   0  0  0  0  0  0  0  0  0  0  0  0
    2.2460    4.7480    0.7520 C   0  0  0  0  0  0  0  0  0  0  0  0
    2.1970    2.2550    0.6780 C   0  0  0  0  0  0  0  0  0  0  0  0
    2.7740    1.0290    0.3590 C   0  0  0  0  0  0  0  0  0  0  0  0
    2.1010   -0.1440    0.6310 N   0  0  0  0  0  0  0  0  0  0  0  0
    2.6950   -1.3250    0.3040 C   0  0  0  0  0  0  0  0  0  0  0  0
    0.7770   -0.1190    1.2580 C   0  0  0  0  0  0  0  0  0  0  0  0
   -0.3000   -0.0600    0.1730 C   0  0  2  0  0  0  0  0  0  0  0  0
   -0.1220    1.1210   -0.6110 O   0  0  0  0  0  0  0  0  0  0  0  0
   -1.6830   -0.0350    0.8270 C   0  0  2  0  0  0  0  0  0  0  0  0
   -1.8600   -1.2170    1.6110 O   0  0  0  0  0  0  0  0  0  0  0  0
   -2.7600    0.0240   -0.2580 C   0  0  2  0  0  0  0  0  0  0  0  0
   -2.5820    1.2060   -1.0420 O   0  0  0  0  0  0  0  0  0  0  0  0
   -4.1420    0.0490    0.3970 C   0  0  0  0  0  0  0  0  0  0  0  0
   -5.1490   -0.0130   -0.6150 O   0  0  0  0  0  0  0  0  0  0  0  0
   -6.7250   -0.0070   -0.2850 P   0  0  0  0  0  0  0  0  0  0  0  0
   -7.0530    1.1800    0.5360 O   0  0  0  0  0  0  0  0  0  0  0  0
   -7.5610    0.0450   -1.6600 O   0  0  0  0  0  0  0  0  0  0  0  0
   -7.1090   -1.3440    0.5260 O   0  0  0  0  0  0  0  0  0  0  0  0
  1  2  1  0
  1 18  2  0
  2  3  2  0
  2  4  1  0
  4  5  1  0
  5  6  2  0
  5  7  1  0
  7  8  2  0
  7 18  1  0
  8  9  1  0
  9 10  1  0
  9 16  2  0
 10 11  2  0
 11 12  1  0
 11 13  1  0
 13 14  1  0
 13 15  2  0
 15 16  1  0
 16 17  1  0
 17 18  1  0
 17 19  1  0
 19 20  1  0
 20 21  1  1
 20 22  1  0
 22 23  1  6
 22 24  1  0
 24 25  1  1
 24 26  1  0
 26 27  1  0
 27 28  1  0
 28 29  2  0
 28 30  1  0
 28 31  1  0
M  END
>  <NetFormalCharge>  (32) 
0

$$$$

     RDKit          3D

  3  2  0  0  0  0  0  0  0  0999 V2000
   -0.0358    0.0532    0.0527 C   0  0  0  0  0  0  0  0  0  0  0  0
   -1.0230   -0.7228    0.1285 O   0  0  0  0  0  0  0  0  0  0  0  0
    1.2396   -0.4168    0.3341 O   0  0  0  0  0  0  0  0  0  0  0  0
  1  2  2  0
  1  3  1  0
M  CHG  1   3  -1
M  END
>  <LigandName>  (33) 
Formate

>  <SMILES>  (33) 
C(=O)[O-]

>  <FieldStrength>  (33) 
moderate

>  <MolecularWeight>  (33) 
45.02

>  <HDonors>  (33) 
0

>  <HAcceptors>  (33) 
2

>  <LogP>  (33) 
-1.63

>  <NumAtoms>  (33) 
4

>  <NetFormalCharge>  (33) 
-1

$$$$
FUC
     RDKit          3D

 11 11  0  0  1  0  0  0  0  0999 V2000
    1.4100    0.4680   -0.4100 C   0  0  2  0  0  0  0  0  0  0  0  0
    0.1200    0.5130   -1.2330 C   0  0  2  0  0  0  0  0  0  0  0  0
   -0.8310   -0.5760   -0.7280 C   0  0  1  0  0  0  0  0  0  0  0  0
   -1.0160   -0.4020    0.7830 C   0  0  1  0  0  0  0  0  0  0  0  0
    0.3590   -0.3790    1.4540 C   0  0  2  0  0  0  0  0  0  0  0  0
    0.1850   -0.2410    2.9670 C   0  0  0  0  0  0  0  0  0  0  0  0
    2.0070   -0.8230   -0.5350 O   0  0  0  0  0  0  0  0  0  0  0  0
    0.4240    0.2840   -2.6100 O   0  0  0  0  0  0  0  0  0  0  0  0
   -2.0940   -0.4520   -1.3850 O   0  0  0  0  0  0  0  0  0  0  0  0
   -1.7000    0.8240    1.0440 O   0  0  0  0  0  0  0  0  0  0  0  0
    1.1160    0.7240    0.9610 O   0  0  0  0  0  0  0  0  0  0  0  0
  1  2  1  0
  1  7  1  1
  1 11  1  0
  2  3  1  0
  2  8  1  6
  3  4  1  0
  3  9  1  6
  4  5  1  0
  4 10  1  6
  5  6  1  1
  5 11  1  0
M  END
>  <NetFormalCharge>  (34) 
0

$$$$
GAL
     RDKit          3D

 12 12  0  0  1  0  0  0  0  0999 V2000
    0.5160    1.4090   -0.1910 C   0  0  2  0  0  0  0  0  0  0  0  0
    1.5220    0.3020    0.1360 C   0  0  1  0  0  0  0  0  0  0  0  0
    1.1030   -0.9860   -0.5780 C   0  0  2  0  0  0  0  0  0  0  0  0
   -0.3220   -1.3520   -0.1520 C   0  0  2  0  0  0  0  0  0  0  0  0
   -1.2580   -0.1820   -0.4680 C   0  0  1  0  0  0  0  0  0  0  0  0
   -2.6720   -0.5160    0.0090 C   0  0  0  0  0  0  0  0  0  0  0  0
    0.8700    2.5990    0.5170 O   0  0  0  0  0  0  0  0  0  0  0  0
    2.8230    0.6930   -0.3080 O   0  0  0  0  0  0  0  0  0  0  0  0
    1.9950   -2.0440   -0.2200 O   0  0  0  0  0  0  0  0  0  0  0  0
   -0.3480   -1.6180    1.2510 O   0  0  0  0  0  0  0  0  0  0  0  0
   -0.7930    0.9920    0.2020 O   0  0  0  0  0  0  0  0  0  0  0  0
   -3.5670    0.5250   -0.3890 O   0  0  0  0  0  0  0  0  0  0  0  0
  1  2  1  0
  1  7  1  1
  1 11  1  0
  2  3  1  0
  2  8  1  6
  3  4  1  0
  3  9  1  1
  4  5  1  0
  4 10  1  1
  5  6  1  1
  5 11  1  0
  6 12  1  0
M  END
>  <NetFormalCharge>  (35) 
0

$$$$
GDP
     RDKit          3D

 28 30  0  0  1  0  0  0  0  0999 V2000
   -5.7430   -1.4710    0.4750 P   0  0  0  0  0  0  0  0  0  0  0  0
   -6.8290   -0.8310   -0.3000 O   0  0  0  0  0  0  0  0  0  0  0  0
   -6.2930   -1.8850    1.9300 O   0  0  0  0  0  0  0  0  0  0  0  0
   -5.2340   -2.7870   -0.3010 O   0  0  0  0  0  0  0  0  0  0  0  0
   -4.5190   -0.4380    0.6380 O   0  0  0  0  0  0  0  0  0  0  0  0
   -3.8210    0.6330   -0.3400 P   0  0  1  0  0  0  0  0  0  0  0  0
   -3.7180    0.0630   -1.7020 O   0  0  0  0  0  0  0  0  0  0  0  0
   -4.7080    1.9760   -0.3860 O   0  0  0  0  0  0  0  0  0  0  0  0
   -2.3480    0.9810    0.2080 O   0  0  0  0  0  0  0  0  0  0  0  0
   -1.4340    1.8230   -0.4970 C   0  0  0  0  0  0  0  0  0  0  0  0
   -0.1330    1.9430    0.2990 C   0  0  1  0  0  0  0  0  0  0  0  0
    0.5330    0.6700    0.3440 O   0  0  0  0  0  0  0  0  0  0  0  0
    0.8200    2.9330   -0.3990 C   0  0  1  0  0  0  0  0  0  0  0  0
    1.1250    4.0280    0.4670 O   0  0  0  0  0  0  0  0  0  0  0  0
    2.0910    2.0980   -0.6860 C   0  0  1  0  0  0  0  0  0  0  0  0
    3.2710    2.8610   -0.4280 O   0  0  0  0  0  0  0  0  0  0  0  0
    1.9520    0.9350    0.3290 C   0  0  2  0  0  0  0  0  0  0  0  0
    2.6910   -0.2430   -0.1320 N   0  0  0  0  0  0  0  0  0  0  0  0
    2.2000   -1.2520   -0.9080 C   0  0  0  0  0  0  0  0  0  0  0  0
    3.1310   -2.1340   -1.1250 N   0  0  0  0  0  0  0  0  0  0  0  0
    4.2720   -1.7460   -0.5040 C   0  0  0  0  0  0  0  0  0  0  0  0
    5.5710   -2.2950   -0.3960 C   0  0  0  0  0  0  0  0  0  0  0  0
    5.8500   -3.3500   -0.9390 O   0  0  0  0  0  0  0  0  0  0  0  0
    6.4950   -1.6200    0.3240 N   0  0  0  0  0  0  0  0  0  0  0  0
    6.1710   -0.4410    0.9270 C   0  0  0  0  0  0  0  0  0  0  0  0
    7.1300    0.2220    1.6510 N   0  0  0  0  0  0  0  0  0  0  0  0
    4.9680    0.0790    0.8340 N   0  0  0  0  0  0  0  0  0  0  0  0
    4.0030   -0.5290    0.1330 C   0  0  0  0  0  0  0  0  0  0  0  0
  1  2  2  0
  1  3  1  0
  1  4  1  0
  1  5  1  0
  6  5  1  0
  6  7  2  0
  6  8  1  6
  6  9  1  0
  9 10  1  0
 11 10  1  6
 11 12  1  0
 11 13  1  0
 12 17  1  0
 13 14  1  1
 13 15  1  0
 15 16  1  1
 15 17  1  0
 17 18  1  6
 18 19  1  0
 18 28  1  0
 19 20  2  0
 20 21  1  0
 21 22  1  0
 21 28  2  0
 22 23  2  0
 22 24  1  0
 24 25  1  0
 25 26  1  0
 25 27  2  0
 27 28  1  0
M  END
>  <NetFormalCharge>  (36) 
0

$$$$
GLC
     RDKit          3D

 12 12  0  0  1  0  0  0  0  0999 V2000
   -0.5670    1.5720   -0.2450 C   0  0  1  0  0  0  0  0  0  0  0  0
   -1.5780    0.4650   -0.5540 C   0  0  1  0  0  0  0  0  0  0  0  0
   -1.1790   -0.8060    0.2030 C   0  0  2  0  0  0  0  0  0  0  0  0
    0.2490   -1.1950   -0.1920 C   0  0  1  0  0  0  0  0  0  0  0  0
    1.1890   -0.0240    0.1020 C   0  0  1  0  0  0  0  0  0  0  0  0
    2.6070   -0.3830   -0.3450 C   0  0  0  0  0  0  0  0  0  0  0  0
   -0.6000    1.8710    1.1510 O   0  0  0  0  0  0  0  0  0  0  0  0
   -2.8810    0.8790   -0.1390 O   0  0  0  0  0  0  0  0  0  0  0  0
   -2.0750   -1.8660   -0.1370 O   0  0  0  0  0  0  0  0  0  0  0  0
    0.6580   -2.3380    0.5620 O   0  0  0  0  0  0  0  0  0  0  0  0
    0.7440    1.1330   -0.6080 O   0  0  0  0  0  0  0  0  0  0  0  0
    3.5060    0.6610    0.0350 O   0  0  0  0  0  0  0  0  0  0  0  0
  1  2  1  0
  1  7  1  1
  1 11  1  0
  2  3  1  0
  2  8  1  1
  3  4  1  0
  3  9  1  6
  4  5  1  0
  4 10  1  1
  5  6  1  6
  5 11  1  0
  6 12  1  0
M  END
>  <NetFormalCharge>  (37) 
0

$$$$
GMP
     RDKit          3D

 20 22  0  0  1  0  0  0  0  0999 V2000
    4.7970    1.9170    0.9370 O   0  0  0  0  0  0  0  0  0  0  0  0
    4.4600    0.9830   -0.0920 C   0  0  0  0  0  0  0  0  0  0  0  0
    3.3860    0.0230    0.4230 C   0  0  1  0  0  0  0  0  0  0  0  0
    2.1610    0.7380    0.6550 O   0  0  0  0  0  0  0  0  0  0  0  0
    3.0930   -1.0540   -0.6400 C   0  0  1  0  0  0  0  0  0  0  0  0
    3.3710   -2.3560   -0.1230 O   0  0  0  0  0  0  0  0  0  0  0  0
    1.5810   -0.8970   -0.9320 C   0  0  1  0  0  0  0  0  0  0  0  0
    0.9520   -2.1740   -1.0650 O   0  0  0  0  0  0  0  0  0  0  0  0
    1.0790   -0.1640    0.3380 C   0  0  2  0  0  0  0  0  0  0  0  0
   -0.1480    0.5830    0.0510 N   0  0  0  0  0  0  0  0  0  0  0  0
   -0.2240    1.8790   -0.3700 C   0  0  0  0  0  0  0  0  0  0  0  0
   -1.4700    2.2190   -0.5260 N   0  0  0  0  0  0  0  0  0  0  0  0
   -2.2650    1.1660   -0.2160 C   0  0  0  0  0  0  0  0  0  0  0  0
   -3.6640    0.9580   -0.2020 C   0  0  0  0  0  0  0  0  0  0  0  0
   -4.4320    1.8510   -0.5190 O   0  0  0  0  0  0  0  0  0  0  0  0
   -4.1290   -0.2540    0.1710 N   0  0  0  0  0  0  0  0  0  0  0  0
   -3.2620   -1.2450    0.5240 C   0  0  0  0  0  0  0  0  0  0  0  0
   -3.7630   -2.4670    0.8990 N   0  0  0  0  0  0  0  0  0  0  0  0
   -1.9610   -1.0650    0.5150 N   0  0  0  0  0  0  0  0  0  0  0  0
   -1.4270    0.1070    0.1510 C   0  0  0  0  0  0  0  0  0  0  0  0
  1  2  1  0
  3  2  1  6
  3  4  1  0
  3  5  1  0
  4  9  1  0
  5  6  1  1
  5  7  1  0
  7  8  1  1
  7  9  1  0
  9 10  1  6
 10 11  1  0
 10 20  1  0
 11 12  2  0
 12 13  1  0
 13 14  1  0
 13 20  2  0
 14 15  2  0
 14 16  1  0
 16 17  1  0
 17 18  1  0
 17 19  2  0
 19 20  1  0
M  END
>  <NetFormalCharge>  (38) 
0

$$$$
GTP
     RDKit          3D

 32 34  0  0  1  0  0  0  0  0999 V2000
   -6.0300   -2.3670    0.6370 P   0  0  0  0  0  0  0  0  0  0  0  0
   -7.3260   -1.9960    0.0260 O   0  0  0  0  0  0  0  0  0  0  0  0
   -6.2850   -2.9820    2.1030 O   0  0  0  0  0  0  0  0  0  0  0  0
   -5.2960   -3.4630   -0.2860 O   0  0  0  0  0  0  0  0  0  0  0  0
   -5.1010   -1.0580    0.7580 O   0  0  0  0  0  0  0  0  0  0  0  0
   -4.8180    0.2060   -0.1990 P   0  0  1  0  0  0  0  0  0  0  0  0
   -4.7320   -0.2500   -1.6050 O   0  0  0  0  0  0  0  0  0  0  0  0
   -6.0170    1.2690   -0.0520 O   0  0  0  0  0  0  0  0  0  0  0  0
   -3.4290    0.9000    0.2260 O   0  0  0  0  0  0  0  0  0  0  0  0
   -2.4490    1.9650   -0.4790 P   0  0  1  0  0  0  0  0  0  0  0  0
   -2.3500    1.6620   -1.9250 O   0  0  0  0  0  0  0  0  0  0  0  0
   -3.0400    3.4500   -0.2820 O   0  0  0  0  0  0  0  0  0  0  0  0
   -0.9880    1.8760    0.1900 O   0  0  0  0  0  0  0  0  0  0  0  0
    0.1340    2.6220   -0.2870 C   0  0  0  0  0  0  0  0  0  0  0  0
    1.3600    2.3040    0.5700 C   0  0  1  0  0  0  0  0  0  0  0  0
    1.7490    0.9330    0.3780 O   0  0  0  0  0  0  0  0  0  0  0  0
    2.5480    3.1820    0.1320 C   0  0  1  0  0  0  0  0  0  0  0  0
    2.9940    3.9970    1.2180 O   0  0  0  0  0  0  0  0  0  0  0  0
    3.6450    2.1660   -0.2690 C   0  0  1  0  0  0  0  0  0  0  0  0
    4.9290    2.5930    0.1900 O   0  0  0  0  0  0  0  0  0  0  0  0
    3.1880    0.8860    0.4760 C   0  0  2  0  0  0  0  0  0  0  0  0
    3.7110   -0.3110   -0.1880 N   0  0  0  0  0  0  0  0  0  0  0  0
    3.0940   -1.0210   -1.1760 C   0  0  0  0  0  0  0  0  0  0  0  0
    3.8430   -2.0230   -1.5330 N   0  0  0  0  0  0  0  0  0  0  0  0
    4.9810   -2.0170   -0.7980 C   0  0  0  0  0  0  0  0  0  0  0  0
    6.1290   -2.8420   -0.7530 C   0  0  0  0  0  0  0  0  0  0  0  0
    6.2350   -3.8070   -1.4910 O   0  0  0  0  0  0  0  0  0  0  0  0
    7.1060   -2.5350    0.1290 N   0  0  0  0  0  0  0  0  0  0  0  0
    6.9780   -1.4540    0.9500 C   0  0  0  0  0  0  0  0  0  0  0  0
    7.9860   -1.1650    1.8350 N   0  0  0  0  0  0  0  0  0  0  0  0
    5.9160   -0.6790    0.9170 N   0  0  0  0  0  0  0  0  0  0  0  0
    4.9110   -0.9180    0.0660 C   0  0  0  0  0  0  0  0  0  0  0  0
  1  2  2  0
  1  3  1  0
  1  4  1  0
  1  5  1  0
  6  5  1  0
  6  7  2  0
  6  8  1  6
  6  9  1  0
 10  9  1  0
 10 11  2  0
 10 12  1  6
 10 13  1  0
 13 14  1  0
 15 14  1  6
 15 16  1  0
 15 17  1  0
 16 21  1  0
 17 18  1  1
 17 19  1  0
 19 20  1  1
 19 21  1  0
 21 22  1  6
 22 23  1  0
 22 32  1  0
 23 24  2  0
 24 25  1  0
 25 26  1  0
 25 32  2  0
 26 27  2  0
 26 28  1  0
 28 29  1  0
 29 30  1  0
 29 31  2  0
 31 32  1  0
M  END
>  <NetFormalCharge>  (39) 
0

$$$$

     RDKit          3D

  1  0  0  0  0  0  0  0  0  0999 V2000
   -0.0035    0.4041    0.0000 O   0  0  0  0  0  0  0  0  0  0  0  0
M  END
>  <LigandName>  (40) 
H₂O

>  <SMILES>  (40) 
O

>  <FieldStrength>  (40) 
moderate

>  <MolecularWeight>  (40) 
18.02

>  <HDonors>  (40) 
0

>  <HAcceptors>  (40) 
0

>  <LogP>  (40) 
-0.82

>  <NumAtoms>  (40) 
3

>  <NetFormalCharge>  (40) 
0

$$$$
HEM
     RDKit          3D

  0  0  0  0  0  0  0  0  0  0999 V3000
M  V30 BEGIN CTAB
M  V30 COUNTS 43 50 0 0 0
M  V30 BEGIN ATOM
M  V30 1 C -2.161000 -0.125000 0.490000 0
M  V30 2 C 1.458000 -3.419000 0.306000 0
M  V30 3 C 4.701000 0.169000 -0.069000 0
M  V30 4 C 1.075000 3.460000 0.018000 0
M  V30 5 C -1.436000 -1.305000 0.380000 0
M  V30 6 C -2.015000 -2.587000 0.320000 0
M  V30 7 C -1.009000 -3.500000 0.270000 0
M  V30 8 C 0.216000 -2.803000 0.298000 0
M  V30 9 C -1.175000 -4.996000 0.197000 0
M  V30 10 C -3.490000 -2.893000 0.314000 0
M  V30 11 C -3.998000 -2.926000 -1.129000 0
M  V30 12 C -5.473000 -3.232000 -1.136000 0
M  V30 13 O -6.059000 -3.405000 -0.094000 0
M  V30 14 O -6.137000 -3.311000 -2.300000 0
M  V30 15 C 2.664000 -2.707000 0.308000 0
M  V30 16 C 3.937000 -3.328000 0.418000 0
M  V30 17 C 4.874000 -2.341000 0.314000 0
M  V30 18 C 4.117000 -1.079000 0.139000 0
M  V30 19 C 4.203000 -4.798000 0.613000 0
M  V30 20 C 6.339000 -2.497000 0.365000 0
M  V30 21 C 6.935000 -3.419000 -0.385000 0
M  V30 22 C 3.964000 1.345000 -0.174000 0
M  V30 23 C 4.531000 2.601000 -0.445000 0
M  V30 24 C 3.510000 3.536000 -0.437000 0
M  V30 25 C 2.304000 2.846000 -0.139000 0
M  V30 26 C 5.991000 2.880000 -0.697000 0
M  V30 27 C 3.649000 4.981000 -0.692000 0
M  V30 28 C 4.201000 5.407000 -1.823000 0
M  V30 29 C -0.102000 2.753000 0.298000 0
M  V30 30 C -1.382000 3.388000 0.641000 0
M  V30 31 C -2.283000 2.389000 0.774000 0
M  V30 32 C -1.561000 1.137000 0.511000 0
M  V30 33 C -1.639000 4.863000 0.811000 0
M  V30 34 C -3.741000 2.532000 1.123000 0
M  V30 35 C -4.573000 2.563000 -0.160000 0
M  V30 36 C -6.032000 2.706000 0.189000 0
M  V30 37 O -6.372000 2.776000 1.347000 0
M  V30 38 O -6.954000 2.755000 -0.785000 0
M  V30 39 N -0.068000 -1.456000 0.321000 0
M  V30 40 N 2.820000 -1.386000 0.207000 0
M  V30 41 N 2.604000 1.506000 -0.033000 0
M  V30 42 N -0.276000 1.431000 0.298000 0
M  V30 43 Fe 1.010000 0.157000 -0.060000 0 CFG=1 VAL=4
M  V30 END ATOM
M  V30 BEGIN BOND
M  V30 1 1 1 5
M  V30 2 2 1 32
M  V30 3 1 2 8
M  V30 4 2 2 15
M  V30 5 1 3 18
M  V30 6 2 3 22
M  V30 7 2 4 25
M  V30 8 1 4 29
M  V30 9 2 5 6
M  V30 10 1 5 39
M  V30 11 1 6 7
M  V30 12 1 6 10
M  V30 13 2 7 8
M  V30 14 1 7 9
M  V30 15 1 8 39
M  V30 16 1 10 11
M  V30 17 1 11 12
M  V30 18 2 12 13
M  V30 19 1 12 14
M  V30 20 1 15 16
M  V30 21 1 15 40
M  V30 22 2 16 17
M  V30 23 1 16 19
M  V30 24 1 17 18
M  V30 25 1 17 20
M  V30 26 2 18 40
M  V30 27 2 20 21
M  V30 28 1 22 23
M  V30 29 1 22 41
M  V30 30 2 23 24
M  V30 31 1 23 26
M  V30 32 1 24 25
M  V30 33 1 24 27
M  V30 34 1 25 41
M  V30 35 2 27 28
M  V30 36 1 29 30
M  V30 37 2 29 42
M  V30 38 2 30 31
M  V30 39 1 30 33
M  V30 40 1 31 32
M  V30 41 1 31 34
M  V30 42 1 32 42
M  V30 43 1 34 35
M  V30 44 1 35 36
M  V30 45 2 36 37
M  V30 46 1 36 38
M  V30 47 1 43 39
M  V30 48 9 40 43
M  V30 49 1 43 41
M  V30 50 9 42 43
M  V30 END BOND
M  V30 END CTAB
M  END
>  <NetFormalCharge>  (41) 
0

$$$$
HEZ
     RDKit          3D

  8  7  0  0  0  0  0  0  0  0999 V2000
   -0.2850    0.0000    4.2970 O   0  0  0  0  0  0  0  0  0  0  0  0
    0.5120    0.0000    3.1120 C   0  0  0  0  0  0  0  0  0  0  0  0
   -0.3990    0.0000    1.8830 C   0  0  0  0  0  0  0  0  0  0  0  0
    0.4550    0.0000    0.6140 C   0  0  0  0  0  0  0  0  0  0  0  0
   -0.4550    0.0000   -0.6140 C   0  0  0  0  0  0  0  0  0  0  0  0
    0.3990    0.0000   -1.8830 C   0  0  0  0  0  0  0  0  0  0  0  0
   -0.5120    0.0000   -3.1120 C   0  0  0  0  0  0  0  0  0  0  0  0
    0.2850    0.0000   -4.2970 O   0  0  0  0  0  0  0  0  0  0  0  0
  1  2  1  0
  2  3  1  0
  3  4  1  0
  4  5  1  0
  5  6  1  0
  6  7  1  0
  7  8  1  0
M  END
>  <NetFormalCharge>  (42) 
0

$$$$

     RDKit          3D

  1  0  0  0  0  0  0  0  0  0999 V2000
    4.0000    0.0000    0.0000 H   0  0  0  0  0  0  0  0  0  0  0  0
M  CHG  1   1  -1
M  END
>  <LigandName>  (43) 
H⁻

>  <SMILES>  (43) 
[H-]

>  <FieldStrength>  (43) 
very strong

>  <MolecularWeight>  (43) 
1.01

>  <HDonors>  (43) 
0

>  <HAcceptors>  (43) 
0

>  <LogP>  (43) 
0.11

>  <NumAtoms>  (43) 
1

>  <NetFormalCharge>  (43) 
-1

$$$$
IMD
     RDKit          3D

  5  5  0  0  0  0  0  0  0  0999 V2000
    1.0760   -0.3410   -0.0020 N   0  0  0  0  0  0  0  0  0  0  0  0
    0.0000   -1.1110    0.0030 C   0  0  0  0  0  0  0  0  0  0  0  0
   -1.0760   -0.3410   -0.0020 N   0  0  0  0  0  0  0  0  0  0  0  0
   -0.6740    0.9470    0.0010 C   0  0  0  0  0  0  0  0  0  0  0  0
    0.6740    0.9470    0.0010 C   0  0  0  0  0  0  0  0  0  0  0  0
  1  2  1  0
  1  5  1  0
  2  3  2  0
  3  4  1  0
  4  5  2  0
M  CHG  1   3   1
M  END
>  <NetFormalCharge>  (44) 
1

$$$$

     RDKit          3D

  5  5  0  0  0  0  0  0  0  0999 V2000
    0.6160    0.6823   -0.1646 C   0  0  0  0  0  0  0  0  0  0  0  0
    1.0697   -0.6113   -0.0469 C   0  0  0  0  0  0  0  0  0  0  0  0
    0.0530   -1.4114    0.3319 N   0  0  0  0  0  0  0  0  0  0  0  0
   -1.0027   -0.5774    0.4361 C   0  0  0  0  0  0  0  0  0  0  0  0
   -0.6897    0.6973    0.1409 N   0  0  0  0  0  0  0  0  0  0  0  0
  1  2  2  0
  2  3  1  0
  3  4  2  0
  4  5  1  0
  5  1  1  0
M  END
>  <LigandName>  (45) 
Imidazole

>  <SMILES>  (45) 
c1cnc[nH]1

>  <FieldStrength>  (45) 
moderate-strong

>  <MolecularWeight>  (45) 
68.08

>  <HDonors>  (45) 
1

>  <HAcceptors>  (45) 
1

>  <LogP>  (45) 
0.41

>  <NumAtoms>  (45) 
9

>  <NetFormalCharge>  (45) 
0

$$$$

     RDKit          3D

  1  0  0  0  0  0  0  0  0  0999 V2000
    4.0000    0.0000    0.0000 I   0  0  0  0  0  0  0  0  0  0  0  0
M  CHG  1   1  -1
M  END
>  <LigandName>  (46) 
I⁻

>  <SMILES>  (46) 
[I-]

>  <FieldStrength>  (46) 
very weak

>  <MolecularWeight>  (46) 
126.9

>  <HDonors>  (46) 
0

>  <HAcceptors>  (46) 
0

>  <LogP>  (46) 
-3.0

>  <NumAtoms>  (46) 
1

>  <NetFormalCharge>  (46) 
-1

$$$$
IOD
     RDKit          2D

  1  0  0  0  0  0  0  0  0  0999 V2000
    0.0000    0.0000    0.0000 I   0  0  0  0  0  0  0  0  0  0  0  0
M  CHG  1   1  -1
M  END
>  <NetFormalCharge>  (47) 
-1

$$$$
K
     RDKit          2D

  1  0  0  0  0  0  0  0  0  0999 V2000
    0.0000    0.0000    0.0000 K   0  0  0  0  0 15  0  0  0  0  0  0
M  CHG  1   1   1
M  END
>  <NetFormalCharge>  (48) 
1

$$$$
MAN
     RDKit          3D

 12 12  0  0  1  0  0  0  0  0999 V2000
   -1.6920   -0.1560   -0.3160 C   0  0  1  0  0  0  0  0  0  0  0  0
   -0.8780    0.0910   -1.5880 C   0  0  2  0  0  0  0  0  0  0  0  0
    0.5350   -0.4670   -1.3910 C   0  0  2  0  0  0  0  0  0  0  0  0
    1.1260    0.1340   -0.1110 C   0  0  1  0  0  0  0  0  0  0  0  0
    0.1600   -0.1170    1.0480 C   0  0  1  0  0  0  0  0  0  0  0  0
    0.7570    0.4480    2.3390 C   0  0  0  0  0  0  0  0  0  0  0  0
   -1.7350   -1.5580   -0.0460 O   0  0  0  0  0  0  0  0  0  0  0  0
   -0.8080    1.4940   -1.8450 O   0  0  0  0  0  0  0  0  0  0  0  0
    1.3500   -0.1130   -2.5110 O   0  0  0  0  0  0  0  0  0  0  0  0
    2.3840   -0.4820    0.1700 O   0  0  0  0  0  0  0  0  0  0  0  0
   -1.0870    0.5200    0.7840 O   0  0  0  0  0  0  0  0  0  0  0  0
   -0.1420    0.2110    3.4230 O   0  0  0  0  0  0  0  0  0  0  0  0
  1  2  1  0
  1  7  1  1
  1 11  1  0
  2  3  1  0
  2  8  1  1
  3  4  1  0
  3  9  1  6
  4  5  1  0
  4 10  1  1
  5  6  1  1
  5 11  1  0
  6 12  1  0
M  END
>  <NetFormalCharge>  (49) 
0

$$$$

     RDKit          3D

  3  2  0  0  0  0  0  0  0  0999 V2000
   -0.4956    0.0043    0.0005 C   0  0  0  0  0  0  0  0  0  0  0  0
    0.9675   -0.0084   -0.0010 C   0  0  0  0  0  0  0  0  0  0  0  0
    2.1247   -0.0185   -0.0022 N   0  0  0  0  0  0  0  0  0  0  0  0
  1  2  1  0
  2  3  3  0
M  END
>  <LigandName>  (50) 
MeCN

>  <SMILES>  (50) 
CC#N

>  <FieldStrength>  (50) 
moderate-strong

>  <MolecularWeight>  (50) 
41.05

>  <HDonors>  (50) 
0

>  <HAcceptors>  (50) 
1

>  <LogP>  (50) 
0.53

>  <NumAtoms>  (50) 
6

>  <NetFormalCharge>  (50) 
0

$$$$

     RDKit          3D

  2  1  0  0  0  0  0  0  0  0999 V2000
   -0.3562   -0.0047   -0.0398 C   0  0  0  0  0  0  0  0  0  0  0  0
    0.9279   -0.5543   -0.1095 O   0  0  0  0  0  0  0  0  0  0  0  0
  1  2  1  0
M  END
>  <LigandName>  (51) 
MeOH

>  <SMILES>  (51) 
CO

>  <FieldStrength>  (51) 
moderate

>  <MolecularWeight>  (51) 
32.04

>  <HDonors>  (51) 
1

>  <HAcceptors>  (51) 
1

>  <LogP>  (51) 
-0.39

>  <NumAtoms>  (51) 
6

>  <NetFormalCharge>  (51) 
0

$$$$
MES
     RDKit          3D

 12 12  0  0  0  0  0  0  0  0999 V2000
    4.1150    0.3260   -0.3730 O   0  0  0  0  0  0  0  0  0  0  0  0
    3.7640   -0.9230    0.2210 C   0  0  0  0  0  0  0  0  0  0  0  0
    2.3310   -1.2940   -0.1640 C   0  0  0  0  0  0  0  0  0  0  0  0
    1.4100   -0.2670    0.3430 N   0  0  0  0  0  0  0  0  0  0  0  0
    1.8120    1.0450   -0.1860 C   0  0  0  0  0  0  0  0  0  0  0  0
    3.2660    1.3210    0.1990 C   0  0  0  0  0  0  0  0  0  0  0  0
    0.0420   -0.5750   -0.0940 C   0  0  0  0  0  0  0  0  0  0  0  0
   -0.9320    0.4250    0.5330 C   0  0  0  0  0  0  0  0  0  0  0  0
   -2.6210    0.0450   -0.0070 S   0  0  0  0  0  0  0  0  0  0  0  0
   -2.9690   -1.3030    0.4150 O   0  0  0  0  0  0  0  0  0  0  0  0
   -2.6950    0.1380   -1.4570 O   0  0  0  0  0  0  0  0  0  0  0  0
   -3.5430    0.9980    0.5910 O   0  0  0  0  0  0  0  0  0  0  0  0
  1  2  1  0
  1  6  1  0
  2  3  1  0
  3  4  1  0
  4  5  1  0
  4  7  1  0
  5  6  1  0
  7  8  1  0
  8  9  1  0
  9 10  2  0
  9 11  2  0
  9 12  1  0
M  CHG  2   4   1  12  -1
M  END
>  <NetFormalCharge>  (52) 
0

$$$$
MG
     RDKit          2D

  1  0  0  0  0  0  0  0  0  0999 V2000
    0.0000    0.0000    0.0000 Mg  0  0  0  0  0 15  0  0  0  0  0  0
M  CHG  1   1   2
M  END
>  <NetFormalCharge>  (53) 
2

$$$$
MLA
     RDKit          3D

  7  6  0  0  0  0  0  0  0  0999 V2000
   -0.0670    0.0000    1.2300 C   0  0  0  0  0  0  0  0  0  0  0  0
   -0.6290    0.0000    2.4490 O   0  0  0  0  0  0  0  0  0  0  0  0
    1.1350    0.0000    1.1190 O   0  0  0  0  0  0  0  0  0  0  0  0
   -0.9370    0.0000    0.0000 C   0  0  0  0  0  0  0  0  0  0  0  0
   -0.0670    0.0000   -1.2300 C   0  0  0  0  0  0  0  0  0  0  0  0
    1.1350    0.0000   -1.1190 O   0  0  0  0  0  0  0  0  0  0  0  0
   -0.6290    0.0000   -2.4490 O   0  0  0  0  0  0  0  0  0  0  0  0
  1  2  1  0
  1  3  2  0
  1  4  1  0
  4  5  1  0
  5  6  2  0
  5  7  1  0
M  END
>  <NetFormalCharge>  (54) 
0

$$$$
MLB
     RDKit          3D

 23 24  0  0  1  0  0  0  0  0999 V2000
    2.7210   -0.1030   -1.6670 C   0  0  1  0  0  0  0  0  0  0  0  0
    3.9730    0.4930   -1.0170 C   0  0  1  0  0  0  0  0  0  0  0  0
    4.1400   -0.0960    0.3870 C   0  0  2  0  0  0  0  0  0  0  0  0
    2.8730    0.1850    1.2000 C   0  0  1  0  0  0  0  0  0  0  0  0
    1.6640   -0.3990    0.4650 C   0  0  1  0  0  0  0  0  0  0  0  0
    0.3870   -0.0700    1.2410 C   0  0  0  0  0  0  0  0  0  0  0  0
    2.8840   -1.5160   -1.8060 O   0  0  0  0  0  0  0  0  0  0  0  0
    5.1200    0.1740   -1.8080 O   0  0  0  0  0  0  0  0  0  0  0  0
    5.2640    0.5100    1.0290 O   0  0  0  0  0  0  0  0  0  0  0  0
    2.9870   -0.4230    2.4880 O   0  0  0  0  0  0  0  0  0  0  0  0
    1.5850    0.1680   -0.8450 O   0  0  0  0  0  0  0  0  0  0  0  0
   -0.7280   -0.7130    0.6190 O   0  0  0  0  0  0  0  0  0  0  0  0
   -1.9770   -0.4700    1.2690 C   0  0  2  0  0  0  0  0  0  0  0  0
   -3.0470   -1.3920    0.6800 C   0  0  1  0  0  0  0  0  0  0  0  0
   -3.2270   -1.0690   -0.8060 C   0  0  2  0  0  0  0  0  0  0  0  0
   -3.5890    0.4110   -0.9560 C   0  0  2  0  0  0  0  0  0  0  0  0
   -2.4970    1.2640   -0.3040 C   0  0  1  0  0  0  0  0  0  0  0  0
   -2.8810    2.7420   -0.3970 C   0  0  0  0  0  0  0  0  0  0  0  0
   -2.6380   -2.7530    0.8280 O   0  0  0  0  0  0  0  0  0  0  0  0
   -4.2760   -1.8750   -1.3470 O   0  0  0  0  0  0  0  0  0  0  0  0
   -4.8400    0.6640   -0.3130 O   0  0  0  0  0  0  0  0  0  0  0  0
   -2.3610    0.8920    1.0690 O   0  0  0  0  0  0  0  0  0  0  0  0
   -1.8110    3.5450    0.1060 O   0  0  0  0  0  0  0  0  0  0  0  0
  1  7  1  1
  1 11  1  0
  2  3  1  0
  2  1  1  0
  3  4  1  0
  4 10  1  1
  4  5  1  0
  5  6  1  1
  6 12  1  0
  2  8  1  6
  3  9  1  1
 11  5  1  0
 13 12  1  6
 13 14  1  0
 14 15  1  0
 14 19  1  6
 15 20  1  1
 16 21  1  1
 16 15  1  0
 17 16  1  0
 17 18  1  1
 22 17  1  0
 22 13  1  0
 23 18  1  0
M  END
>  <NetFormalCharge>  (55) 
0

$$$$
MLC
     RDKit          3D

 54 56  0  0  1  0  0  0  0  0999 V2000
    3.7240    0.6640   -4.5520 C   0  0  0  0  0  0  0  0  0  0  0  0
    3.3780    0.8190   -5.8610 N   0  0  0  0  0  0  0  0  0  0  0  0
    4.5030    1.2160   -6.5390 C   0  0  0  0  0  0  0  0  0  0  0  0
    5.5260    1.2980   -5.5790 C   0  0  0  0  0  0  0  0  0  0  0  0
    4.9840    0.9450   -4.3880 N   0  0  0  0  0  0  0  0  0  0  0  0
    4.7780    1.5220   -7.8030 N   0  0  0  0  0  0  0  0  0  0  0  0
    5.9930    1.8870   -8.1550 C   0  0  0  0  0  0  0  0  0  0  0  0
    6.9870    1.9730   -7.2900 N   0  0  0  0  0  0  0  0  0  0  0  0
    6.8050    1.6920   -6.0040 C   0  0  0  0  0  0  0  0  0  0  0  0
    7.8530    1.7840   -5.1040 N   0  0  0  0  0  0  0  0  0  0  0  0
    2.0510    0.5980   -6.4400 C   0  0  1  0  0  0  0  0  0  0  0  0
    1.8550   -0.8940   -6.8100 C   0  0  2  0  0  0  0  0  0  0  0  0
    2.3630   -1.1650   -8.1180 O   0  0  0  0  0  0  0  0  0  0  0  0
    0.3110   -1.0380   -6.7760 C   0  0  2  0  0  0  0  0  0  0  0  0
   -0.2290   -0.9360   -8.0950 O   0  0  0  0  0  0  0  0  0  0  0  0
   -0.1540    0.1420   -5.9010 C   0  0  2  0  0  0  0  0  0  0  0  0
    1.0210    0.8380   -5.4570 O   0  0  0  0  0  0  0  0  0  0  0  0
   -0.9360   -0.3810   -4.6950 C   0  0  0  0  0  0  0  0  0  0  0  0
   -1.3580    0.7190   -3.8870 O   0  0  0  0  0  0  0  0  0  0  0  0
   -2.1700    0.0980   -2.6430 P   0  0  2  0  0  0  0  0  0  0  0  0
   -1.2840   -0.8060   -1.8770 O   0  0  0  0  0  0  0  0  0  0  0  0
   -3.4390   -0.7280   -3.1890 O   0  0  0  0  0  0  0  0  0  0  0  0
   -2.6770    1.2890   -1.6860 O   0  0  0  0  0  0  0  0  0  0  0  0
   -3.4770    0.6000   -0.4700 P   0  0  2  0  0  0  0  0  0  0  0  0
   -2.5710   -0.3120    0.2610 O   0  0  0  0  0  0  0  0  0  0  0  0
   -4.7240   -0.2340   -1.0530 O   0  0  0  0  0  0  0  0  0  0  0  0
   -4.0160    1.7390    0.5310 O   0  0  0  0  0  0  0  0  0  0  0  0
   -4.7130    1.0680    1.5830 C   0  0  0  0  0  0  0  0  0  0  0  0
   -5.2530    2.1000    2.5760 C   0  0  0  0  0  0  0  0  0  0  0  0
   -5.9990    1.3810    3.7020 C   0  0  1  0  0  0  0  0  0  0  0  0
   -4.0890    2.9000    3.1640 C   0  0  0  0  0  0  0  0  0  0  0  0
   -6.2110    3.0490    1.8540 C   0  0  0  0  0  0  0  0  0  0  0  0
   -7.1650    0.7470    3.1720 O   0  0  0  0  0  0  0  0  0  0  0  0
   -5.0980    0.3430    4.3190 C   0  0  0  0  0  0  0  0  0  0  0  0
   -5.3190   -0.8350    4.1370 O   0  0  0  0  0  0  0  0  0  0  0  0
   -4.0480    0.7240    5.0730 N   0  0  0  0  0  0  0  0  0  0  0  0
   -3.2200   -0.2840    5.7390 C   0  0  0  0  0  0  0  0  0  0  0  0
   -2.1050    0.4090    6.5230 C   0  0  0  0  0  0  0  0  0  0  0  0
   -1.2530   -0.6280    7.2080 C   0  0  0  0  0  0  0  0  0  0  0  0
   -1.5130   -1.8060    7.0820 O   0  0  0  0  0  0  0  0  0  0  0  0
   -0.2030   -0.2470    7.9620 N   0  0  0  0  0  0  0  0  0  0  0  0
    0.6250   -1.2550    8.6280 C   0  0  0  0  0  0  0  0  0  0  0  0
    1.7400   -0.5620    9.4130 C   0  0  0  0  0  0  0  0  0  0  0  0
    2.7630   -1.8080   10.2360 S   0  0  0  0  0  0  0  0  0  0  0  0
   -1.0280   -2.3050   -8.3770 P   0  0  0  0  0  0  0  0  0  0  0  0
   -1.6680   -2.2590   -9.8540 O   0  0  0  0  0  0  0  0  0  0  0  0
   -0.0140   -3.5500   -8.2700 O   0  0  0  0  0  0  0  0  0  0  0  0
   -2.1080   -2.4610   -7.3760 O   0  0  0  0  0  0  0  0  0  0  0  0
    3.8980   -0.7920   11.0170 C   0  0  0  0  0  0  0  0  0  0  0  0
    4.9940   -1.3940   11.8580 C   0  0  0  0  0  0  0  0  0  0  0  0
    5.8510   -0.2930   12.4300 C   0  0  0  0  0  0  0  0  0  0  0  0
    3.8200    0.4120   10.8930 O   0  0  0  0  0  0  0  0  0  0  0  0
    6.8950   -0.5950   13.2160 O   0  0  0  0  0  0  0  0  0  0  0  0
    5.5970    0.8600   12.1790 O   0  0  0  0  0  0  0  0  0  0  0  0
  1  2  1  0
  1  5  2  0
  2  3  1  0
 11  2  1  1
  3  4  2  0
  3  6  1  0
  4  5  1  0
  4  9  1  0
  6  7  2  0
  7  8  1  0
  8  9  2  0
  9 10  1  0
 11 12  1  0
 11 17  1  0
 12 13  1  6
 12 14  1  0
 14 15  1  6
 14 16  1  0
 15 45  1  0
 16 17  1  0
 16 18  1  1
 18 19  1  0
 20 19  1  0
 20 21  2  0
 20 22  1  6
 20 23  1  0
 24 23  1  0
 24 25  2  0
 24 26  1  6
 24 27  1  0
 27 28  1  0
 28 29  1  0
 29 30  1  0
 29 31  1  0
 29 32  1  0
 30 33  1  6
 30 34  1  0
 34 35  2  0
 34 36  1  0
 36 37  1  0
 37 38  1  0
 38 39  1  0
 39 40  2  0
 39 41  1  0
 41 42  1  0
 42 43  1  0
 43 44  1  0
 44 49  1  0
 45 46  1  0
 45 47  1  0
 45 48  2  0
 49 50  1  0
 49 52  2  0
 50 51  1  0
 51 53  1  0
 51 54  2  0
M  END
>  <NetFormalCharge>  (56) 
0

$$$$
MLD
     RDKit          3D

 64 66  0  0  1  0  0  0  0  0999 V2000
   10.7480   -2.3840    0.9430 C   0  0  0  0  0  0  0  0  0  0  0  0
   10.0830   -1.4460   -0.0310 C   0  0  0  0  0  0  0  0  0  0  0  0
    9.2930   -1.8760   -0.8450 O   0  0  0  0  0  0  0  0  0  0  0  0
   10.3680   -0.1280    0.0010 N   0  0  0  0  0  0  0  0  0  0  0  0
    9.7220    0.7830   -0.9470 C   0  0  2  0  0  0  0  0  0  0  0  0
   10.6040    2.0210   -1.1500 C   0  0  1  0  0  0  0  0  0  0  0  0
   11.8170    1.6460   -1.8060 O   0  0  0  0  0  0  0  0  0  0  0  0
    9.8400    3.0290   -2.0170 C   0  0  2  0  0  0  0  0  0  0  0  0
   10.5800    4.2490   -2.0980 O   0  0  0  0  0  0  0  0  0  0  0  0
    8.4750    3.2990   -1.3810 C   0  0  1  0  0  0  0  0  0  0  0  0
    7.7180    4.3300   -2.2220 C   0  0  0  0  0  0  0  0  0  0  0  0
    6.4970    4.6760   -1.5660 O   0  0  0  0  0  0  0  0  0  0  0  0
    7.7210    2.0900   -1.3220 O   0  0  0  0  0  0  0  0  0  0  0  0
    8.3660    1.2240   -0.3910 C   0  0  1  0  0  0  0  0  0  0  0  0
    7.5480    0.0730   -0.1670 O   0  0  0  0  0  0  0  0  0  0  0  0
    6.3500    0.5340    0.4620 C   0  0  2  0  0  0  0  0  0  0  0  0
    6.5300    0.5180    1.9910 C   0  0  2  0  0  0  0  0  0  0  0  0
    6.9400   -0.8500    2.3390 O   0  0  0  0  0  0  0  0  0  0  0  0
    5.1430    0.6450    2.6650 C   0  0  0  0  0  0  0  0  0  0  0  0
    4.6810   -0.7090    2.8180 O   0  0  0  0  0  0  0  0  0  0  0  0
    5.6870   -1.5640    2.2460 C   0  0  1  0  0  0  0  0  0  0  0  0
    5.3690   -1.7480    0.7540 C   0  0  2  0  0  0  0  0  0  0  0  0
    6.4850   -2.4280    0.0910 N   0  0  0  0  0  0  0  0  0  0  0  0
    6.5520   -3.7740    0.0960 C   0  0  0  0  0  0  0  0  0  0  0  0
    7.6990   -4.4740   -0.5850 C   0  0  0  0  0  0  0  0  0  0  0  0
    5.6880   -4.4220    0.6490 O   0  0  0  0  0  0  0  0  0  0  0  0
    5.1600   -0.3690    0.1190 C   0  0  1  0  0  0  0  0  0  0  0  0
    3.9580    0.2130    0.6280 O   0  0  0  0  0  0  0  0  0  0  0  0
    2.9010   -0.1940   -0.2430 C   0  0  2  0  0  0  0  0  0  0  0  0
    2.7440    0.8310   -1.3680 C   0  0  0  0  0  0  0  0  0  0  0  0
    1.6140   -0.2840    0.5370 C   0  0  0  0  0  0  0  0  0  0  0  0
    1.5840    0.0610    1.6990 O   0  0  0  0  0  0  0  0  0  0  0  0
    0.4970   -0.7480   -0.0580 N   0  0  0  0  0  0  0  0  0  0  0  0
   -0.7540   -0.8360    0.7000 C   0  0  1  0  0  0  0  0  0  0  0  0
   -1.4700    0.5160    0.6600 C   0  0  0  0  0  0  0  0  0  0  0  0
   -1.6380   -1.8920    0.0880 C   0  0  0  0  0  0  0  0  0  0  0  0
   -1.2610   -2.5100   -0.8840 O   0  0  0  0  0  0  0  0  0  0  0  0
   -2.8490   -2.1490    0.6230 N   0  0  0  0  0  0  0  0  0  0  0  0
   -3.7080   -3.1750    0.0290 C   0  0  1  0  0  0  0  0  0  0  0  0
   -3.3360   -4.5260    0.5840 C   0  0  0  0  0  0  0  0  0  0  0  0
   -3.9960   -5.6230    0.1800 O   0  0  0  0  0  0  0  0  0  0  0  0
   -2.4440   -4.6210    1.3940 O   0  0  0  0  0  0  0  0  0  0  0  0
   -5.1700   -2.8720    0.3620 C   0  0  0  0  0  0  0  0  0  0  0  0
   -5.5840   -1.5600   -0.3070 C   0  0  0  0  0  0  0  0  0  0  0  0
   -7.0240   -1.2600    0.0220 C   0  0  0  0  0  0  0  0  0  0  0  0
   -7.6570   -2.0220    0.7220 O   0  0  0  0  0  0  0  0  0  0  0  0
   -7.6090   -0.1470   -0.4630 N   0  0  0  0  0  0  0  0  0  0  0  0
   -9.0090    0.1440   -0.1440 C   0  0  2  0  0  0  0  0  0  0  0  0
   -9.9060   -0.5770   -1.1160 C   0  0  0  0  0  0  0  0  0  0  0  0
   -9.4240   -1.2650   -1.9910 O   0  0  0  0  0  0  0  0  0  0  0  0
  -11.2450   -0.4560   -1.0150 N   0  0  0  0  0  0  0  0  0  0  0  0
  -12.1170   -1.1560   -1.9610 C   0  0  2  0  0  0  0  0  0  0  0  0
  -12.2840   -0.3100   -3.2240 C   0  0  0  0  0  0  0  0  0  0  0  0
  -13.4660   -1.3830   -1.3270 C   0  0  0  0  0  0  0  0  0  0  0  0
  -13.6760   -0.9990   -0.2010 O   0  0  0  0  0  0  0  0  0  0  0  0
  -14.4330   -2.0120   -2.0140 O   0  0  0  0  0  0  0  0  0  0  0  0
   -9.2530    1.6510   -0.2450 C   0  0  0  0  0  0  0  0  0  0  0  0
   -8.4340    2.3730    0.8270 C   0  0  0  0  0  0  0  0  0  0  0  0
   -8.6780    3.8800    0.7260 C   0  0  0  0  0  0  0  0  0  0  0  0
   -7.8600    4.6020    1.7990 C   0  0  2  0  0  0  0  0  0  0  0  0
   -8.1930    6.0720    1.7800 C   0  0  0  0  0  0  0  0  0  0  0  0
   -7.4550    6.8510    1.2240 O   0  0  0  0  0  0  0  0  0  0  0  0
   -9.3080    6.5150    2.3800 O   0  0  0  0  0  0  0  0  0  0  0  0
   -6.4280    4.4210    1.5260 N   0  0  0  0  0  0  0  0  0  0  0  0
  1  2  1  0
  2  3  2  0
  2  4  1  0
  5  4  1  1
  5  6  1  0
  5 14  1  0
  6  7  1  6
  6  8  1  0
  8  9  1  1
  8 10  1  0
 10 11  1  6
 10 13  1  0
 11 12  1  0
 13 14  1  0
 14 15  1  6
 16 15  1  6
 16 17  1  0
 16 27  1  0
 17 18  1  0
 17 19  1  1
 18 21  1  0
 19 20  1  0
 21 20  1  6
 21 22  1  0
 22 23  1  6
 22 27  1  0
 23 24  1  0
 24 25  1  0
 24 26  2  0
 27 28  1  1
 28 29  1  0
 29 30  1  6
 29 31  1  0
 31 32  2  0
 31 33  1  0
 33 34  1  0
 34 35  1  6
 34 36  1  0
 36 37  2  0
 36 38  1  0
 38 39  1  0
 39 40  1  0
 39 43  1  1
 40 41  1  0
 40 42  2  0
 43 44  1  0
 44 45  1  0
 45 46  2  0
 45 47  1  0
 47 48  1  0
 48 49  1  0
 48 57  1  6
 49 50  2  0
 49 51  1  0
 51 52  1  0
 52 53  1  6
 52 54  1  0
 54 55  2  0
 54 56  1  0
 57 58  1  0
 58 59  1  0
 59 60  1  0
 60 61  1  0
 60 64  1  6
 61 62  2  0
 61 63  1  0
M  END
>  <NetFormalCharge>  (57) 
0

$$$$
MLE
     RDKit          3D

 10  9  0  0  1  0  0  0  0  0999 V2000
   -0.5190   -1.4170   -0.5190 N   0  0  0  0  0  0  0  0  0  0  0  0
   -1.1550   -2.4130    0.3540 C   0  0  0  0  0  0  0  0  0  0  0  0
   -0.3940   -0.1220    0.1630 C   0  0  1  0  0  0  0  0  0  0  0  0
    0.7770    0.6590   -0.4360 C   0  0  0  0  0  0  0  0  0  0  0  0
    2.0860   -0.0710   -0.1320 C   0  0  0  0  0  0  0  0  0  0  0  0
    3.2410    0.6310   -0.8500 C   0  0  0  0  0  0  0  0  0  0  0  0
    2.3400   -0.0580    1.3760 C   0  0  0  0  0  0  0  0  0  0  0  0
   -1.6670    0.6650   -0.0140 C   0  0  0  0  0  0  0  0  0  0  0  0
   -2.3640    0.4750   -0.9820 O   0  0  0  0  0  0  0  0  0  0  0  0
   -2.0250    1.5770    0.9030 O   0  0  0  0  0  0  0  0  0  0  0  0
  1  2  1  0
  1  3  1  0
  3  4  1  6
  3  8  1  0
  4  5  1  0
  5  6  1  0
  5  7  1  0
  8  9  2  0
  8 10  1  0
M  END
>  <NetFormalCharge>  (58) 
0

$$$$
MLG
     RDKit          3D

 17 17  0  0  1  0  0  0  0  0999 V2000
   -1.0960    0.0140   -1.5200 C   0  0  0  0  0  0  0  0  0  0  0  0
   -1.7060   -0.0260   -2.7580 C   0  0  0  0  0  0  0  0  0  0  0  0
   -0.9380   -0.0320   -3.9090 C   0  0  0  0  0  0  0  0  0  0  0  0
   -1.7080   -0.0840   -5.4650 Cl  0  0  0  0  0  0  0  0  0  0  0  0
    0.4410    0.0030   -3.8230 C   0  0  0  0  0  0  0  0  0  0  0  0
    1.0560    0.0500   -2.5850 C   0  0  0  0  0  0  0  0  0  0  0  0
    2.7880    0.0950   -2.4760 Cl  0  0  0  0  0  0  0  0  0  0  0  0
    0.2870    0.0500   -1.4300 C   0  0  0  0  0  0  0  0  0  0  0  0
    0.8890    0.0900   -0.2110 O   0  0  0  0  0  0  0  0  0  0  0  0
    0.4590    0.1300    2.1660 C   0  0  0  0  0  0  0  0  0  0  0  0
   -0.1530    0.0860    0.7640 C   0  0  0  0  0  0  0  0  0  0  0  0
   -0.6570    0.1260    3.2110 C   0  0  0  0  0  0  0  0  0  0  0  0
   -0.0690    0.1680    4.5560 N   0  0  0  0  0  0  0  0  0  0  0  0
    0.6500   -1.0970    4.7430 C   0  0  0  0  0  0  0  0  0  0  0  0
   -1.1880    0.1610    5.5070 C   0  0  0  0  0  0  0  0  0  0  0  0
   -0.6650    0.2030    6.8820 C   0  0  0  0  0  0  0  0  0  0  0  0
   -0.2470    0.2370    7.9790 C   0  0  0  0  0  0  0  0  0  0  0  0
  1  2  2  0
  1  8  1  0
  2  3  1  0
  3  4  1  0
  3  5  2  0
  5  6  1  0
  6  7  1  0
  6  8  2  0
  8  9  1  0
  9 11  1  0
 10 11  1  0
 10 12  1  0
 12 13  1  0
 13 14  1  0
 13 15  1  0
 15 16  1  0
 16 17  3  0
M  END
>  <NetFormalCharge>  (59) 
0

$$$$
MLH
     RDKit          3D

 26 28  0  0  0  0  0  0  0  0999 V2000
    4.1670    4.3640    2.0960 C   0  0  0  0  0  0  0  0  0  0  0  0
    3.8140    3.7440    0.7420 C   0  0  0  0  0  0  0  0  0  0  0  0
    2.8360    2.6880    0.9330 O   0  0  0  0  0  0  0  0  0  0  0  0
    2.4160    2.0350   -0.1700 C   0  0  0  0  0  0  0  0  0  0  0  0
    2.8550    2.3420   -1.2620 O   0  0  0  0  0  0  0  0  0  0  0  0
    1.4290    0.9560   -0.0520 C   0  0  0  0  0  0  0  0  0  0  0  0
    1.6890   -0.3710    0.1340 C   0  0  0  0  0  0  0  0  0  0  0  0
    3.0630   -0.9770    0.2560 C   0  0  0  0  0  0  0  0  0  0  0  0
    3.5490   -1.3600   -1.0770 N   0  0  0  0  0  0  0  0  0  0  0  0
    3.7620   -0.1750   -1.9200 C   0  0  0  0  0  0  0  0  0  0  0  0
    4.7740   -2.1640   -0.9800 C   0  0  0  0  0  0  0  0  0  0  0  0
   -0.0390    1.0920   -0.1060 C   0  0  0  0  0  0  0  0  0  0  0  0
   -0.9030    2.1720   -0.2690 C   0  0  0  0  0  0  0  0  0  0  0  0
   -2.2690    1.9600   -0.2750 C   0  0  0  0  0  0  0  0  0  0  0  0
   -3.1170    3.0100   -0.4350 O   0  0  0  0  0  0  0  0  0  0  0  0
   -2.7770    0.6730   -0.1190 C   0  0  0  0  0  0  0  0  0  0  0  0
   -4.6480    0.3970   -0.1310 Br  0  0  0  0  0  0  0  0  0  0  0  0
   -1.9290   -0.4010    0.0430 C   0  0  0  0  0  0  0  0  0  0  0  0
   -0.5520   -0.2040    0.0520 C   0  0  0  0  0  0  0  0  0  0  0  0
    0.5240   -1.0620    0.1940 N   0  0  0  0  0  0  0  0  0  0  0  0
    0.4240   -2.4460    0.3780 C   0  0  0  0  0  0  0  0  0  0  0  0
   -0.1630   -2.9550    1.5300 C   0  0  0  0  0  0  0  0  0  0  0  0
   -0.2610   -4.3210    1.7080 C   0  0  0  0  0  0  0  0  0  0  0  0
    0.2250   -5.1820    0.7420 C   0  0  0  0  0  0  0  0  0  0  0  0
    0.8110   -4.6790   -0.4060 C   0  0  0  0  0  0  0  0  0  0  0  0
    0.9060   -3.3140   -0.5930 C   0  0  0  0  0  0  0  0  0  0  0  0
  1  2  1  0
  2  3  1  0
  4  6  1  0
  4  3  1  0
  5  4  2  0
  6  7  2  0
  7 20  1  0
  7  8  1  0
  8  9  1  0
  9 10  1  0
 11  9  1  0
 12  6  1  0
 12 19  2  0
 13 12  1  0
 14 13  2  0
 14 16  1  0
 15 14  1  0
 16 18  2  0
 17 16  1  0
 18 19  1  0
 19 20  1  0
 20 21  1  0
 21 22  2  0
 22 23  1  0
 24 23  2  0
 25 24  1  0
 26 21  1  0
 26 25  2  0
M  END
>  <NetFormalCharge>  (60) 
0

$$$$
MLI
     RDKit          3D

  7  6  0  0  0  0  0  0  0  0999 V2000
    0.0000    0.9590    0.0010 C   0  0  0  0  0  0  0  0  0  0  0  0
    1.2300    0.0890    0.0020 C   0  0  0  0  0  0  0  0  0  0  0  0
   -1.2300    0.0890    0.0000 C   0  0  0  0  0  0  0  0  0  0  0  0
    1.1190   -1.1260    0.0010 O   0  0  0  0  0  0  0  0  0  0  0  0
    2.3380    0.5990   -0.0020 O   0  0  0  0  0  0  0  0  0  0  0  0
   -1.1190   -1.1260   -0.0010 O   0  0  0  0  0  0  0  0  0  0  0  0
   -2.3380    0.5990   -0.0010 O   0  0  0  0  0  0  0  0  0  0  0  0
  1  2  1  0
  1  3  1  0
  2  4  2  0
  2  5  1  0
  3  6  2  0
  3  7  1  0
M  CHG  2   5  -1   7  -1
M  END
>  <NetFormalCharge>  (61) 
-2

$$$$
MLJ
     RDKit          3D

 29 31  0  0  1  0  0  0  0  0999 V2000
    7.9590    0.1340   -0.3820 C   0  0  0  0  0  0  0  0  0  0  0  0
    5.6360   -0.2870   -0.6460 C   0  0  0  0  0  0  0  0  0  0  0  0
    5.4430    0.3540    0.5720 C   0  0  0  0  0  0  0  0  0  0  0  0
    4.1740    0.4870    1.0890 C   0  0  0  0  0  0  0  0  0  0  0  0
    3.0790   -0.0230    0.3870 C   0  0  0  0  0  0  0  0  0  0  0  0
    3.2760   -0.6660   -0.8370 C   0  0  0  0  0  0  0  0  0  0  0  0
    4.5490   -0.7950   -1.3470 C   0  0  0  0  0  0  0  0  0  0  0  0
    1.7160    0.1170    0.9380 C   0  0  0  0  0  0  0  0  0  0  0  0
   -0.6910   -0.2360    0.8060 C   0  0  0  0  0  0  0  0  0  0  0  0
   -1.6970   -0.8750   -0.1530 C   0  0  0  0  0  0  0  0  0  0  0  0
   -3.0880   -0.7320    0.4090 C   0  0  0  0  0  0  0  0  0  0  0  0
   -5.4950   -1.0850    0.2770 C   0  0  2  0  0  0  0  0  0  0  0  0
   -6.3830   -2.1930   -0.2870 C   0  0  0  0  0  0  0  0  0  0  0  0
   -7.8330   -1.9050    0.1220 C   0  0  0  0  0  0  0  0  0  0  0  0
   -8.3170   -0.6810   -0.6530 C   0  0  0  0  0  0  0  0  0  0  0  0
   -7.3390    0.4560   -0.5130 C   0  0  0  0  0  0  0  0  0  0  0  0
   -7.7830    1.7330   -0.8290 C   0  0  0  0  0  0  0  0  0  0  0  0
   -6.9340    2.8160   -0.7250 C   0  0  0  0  0  0  0  0  0  0  0  0
   -5.6310    2.6290   -0.3030 C   0  0  0  0  0  0  0  0  0  0  0  0
   -5.1890    1.3600    0.0130 C   0  0  0  0  0  0  0  0  0  0  0  0
   -6.0420    0.2700   -0.0890 C   0  0  0  0  0  0  0  0  0  0  0  0
    9.1700   -0.0800   -1.0490 F   0  0  0  0  0  0  0  0  0  0  0  0
    7.9980   -0.4920    0.8680 F   0  0  0  0  0  0  0  0  0  0  0  0
    7.7580    1.5080   -0.2100 F   0  0  0  0  0  0  0  0  0  0  0  0
    0.6610   -0.3750    0.2590 N   0  0  0  0  0  0  0  0  0  0  0  0
   -4.1430   -1.2240   -0.2690 N   0  0  0  0  0  0  0  0  0  0  0  0
    6.8870   -0.4110   -1.1550 O   0  0  0  0  0  0  0  0  0  0  0  0
    1.5460    0.6770    2.0040 O   0  0  0  0  0  0  0  0  0  0  0  0
   -3.2580   -0.1740    1.4720 O   0  0  0  0  0  0  0  0  0  0  0  0
  1 27  1  0
  1 23  1  0
  2  7  2  0
  2 27  1  0
  3  2  1  0
  4  5  1  0
  4  3  2  0
  5  6  2  0
  6  7  1  0
  8 25  1  0
  8  5  1  0
  9 10  1  0
  9 25  1  0
 10 11  1  0
 11 26  1  0
 12 13  1  0
 12 21  1  0
 13 14  1  0
 14 15  1  0
 16 15  1  0
 16 17  2  0
 18 17  1  0
 19 18  2  0
 20 21  2  0
 20 19  1  0
 21 16  1  0
 22  1  1  0
 24  1  1  0
 12 26  1  6
 28  8  2  0
 29 11  2  0
M  END
>  <NetFormalCharge>  (62) 
0

$$$$
MLK
     RDKit          3D

 49 56  0  0  1  0  0  0  0  0999 V2000
    6.0850   -1.5930    2.1710 O   0  0  0  0  0  0  0  0  0  0  0  0
    6.3180   -1.7820    0.9970 C   0  0  0  0  0  0  0  0  0  0  0  0
    6.5710   -3.1310    0.3600 C   0  0  0  0  0  0  0  0  0  0  0  0
    6.8060   -2.7910   -1.1260 C   0  0  2  0  0  0  0  0  0  0  0  0
    8.2110   -3.2130   -1.5600 C   0  0  0  0  0  0  0  0  0  0  0  0
    6.6550   -1.2860   -1.1740 C   0  0  0  0  0  0  0  0  0  0  0  0
    6.7630   -0.6010   -2.1680 O   0  0  0  0  0  0  0  0  0  0  0  0
    6.3910   -0.8310    0.0570 N   0  0  0  0  0  0  0  0  0  0  0  0
    6.2020    0.5240    0.3380 C   0  0  0  0  0  0  0  0  0  0  0  0
    7.2820    1.3200    0.6900 C   0  0  0  0  0  0  0  0  0  0  0  0
    7.0930    2.6600    0.9670 C   0  0  0  0  0  0  0  0  0  0  0  0
    5.8280    3.2200    0.8890 C   0  0  0  0  0  0  0  0  0  0  0  0
    4.7450    2.4460    0.5350 C   0  0  0  0  0  0  0  0  0  0  0  0
    4.9210    1.0890    0.2520 C   0  0  0  0  0  0  0  0  0  0  0  0
    3.7660    0.2550   -0.1270 C   0  0  0  0  0  0  0  0  0  0  0  0
    3.9230   -0.9250   -0.3720 O   0  0  0  0  0  0  0  0  0  0  0  0
    2.5360    0.8000   -0.2020 O   0  0  0  0  0  0  0  0  0  0  0  0
    1.3990   -0.0210   -0.5760 C   0  0  0  0  0  0  0  0  0  0  0  0
    0.1310    0.8370   -0.5860 C   0  0  1  0  0  0  0  0  0  0  0  0
    0.3170    1.9440   -1.6150 C   0  0  0  0  0  0  0  0  0  0  0  0
   -0.8580    2.9140   -1.5040 C   0  0  0  0  0  0  0  0  0  0  0  0
   -2.1550    2.1690   -1.7490 C   0  0  2  0  0  0  0  0  0  0  0  0
   -3.2410    3.0510   -1.4390 O   0  0  0  0  0  0  0  0  0  0  0  0
   -3.5630    3.7480   -2.6450 C   0  0  0  0  0  0  0  0  0  0  0  0
   -2.3300    0.8850   -0.9780 C   0  0  1  0  0  0  0  0  0  0  0  0
   -1.0940   -0.0370   -0.9400 C   0  0  2  0  0  0  0  0  0  0  0  0
   -2.5290    1.1580    0.5390 C   0  0  2  0  0  0  0  0  0  0  0  0
   -1.4280    2.0000    0.9640 N   0  0  0  0  0  0  0  0  0  0  0  0
   -1.6220    2.4370    2.3380 C   0  0  0  0  0  0  0  0  0  0  0  0
   -0.8650    3.7470    2.5680 C   0  0  0  0  0  0  0  0  0  0  0  0
   -0.1100    1.4290    0.8050 C   0  0  0  0  0  0  0  0  0  0  0  0
   -3.5290    0.1330   -1.5270 C   0  0  2  0  0  0  0  0  0  0  0  0
   -4.8620    0.8670   -1.3390 C   0  0  0  0  0  0  0  0  0  0  0  0
   -5.9220   -0.2370   -1.0590 C   0  0  2  0  0  0  0  0  0  0  0  0
   -6.2040   -0.1820    0.4520 C   0  0  1  0  0  0  0  0  0  0  0  0
   -7.0990   -1.2180    0.8620 O   0  0  0  0  0  0  0  0  0  0  0  0
   -7.8280   -0.7150    1.9830 C   0  0  0  0  0  0  0  0  0  0  0  0
   -4.9160   -0.2280    1.2460 C   0  0  0  0  0  0  0  0  0  0  0  0
   -3.7480   -1.2180   -0.8250 C   0  0  2  0  0  0  0  0  0  0  0  0
   -5.1830   -1.5750   -1.3060 C   0  0  1  0  0  0  0  0  0  0  0  0
   -5.7270   -2.6690   -0.5810 O   0  0  0  0  0  0  0  0  0  0  0  0
   -6.6190   -3.3490   -1.4660 C   0  0  0  0  0  0  0  0  0  0  0  0
   -3.7550   -1.0350    0.6850 C   0  0  2  0  0  0  0  0  0  0  0  0
   -3.7550   -2.3370    1.3220 O   0  0  0  0  0  0  0  0  0  0  0  0
   -2.4650   -0.2810    1.1010 C   0  0  2  0  0  0  0  0  0  0  0  0
   -2.2710   -0.3370    2.5230 O   0  0  0  0  0  0  0  0  0  0  0  0
   -1.2690   -0.9000    0.3440 C   0  0  1  0  0  0  0  0  0  0  0  0
   -1.4550   -2.2770    0.0470 O   0  0  0  0  0  0  0  0  0  0  0  0
   -0.8980   -3.0130    1.1370 C   0  0  0  0  0  0  0  0  0  0  0  0
  1  2  2  0
  2  3  1  0
  2  8  1  0
  3  4  1  0
  4  5  1  1
  4  6  1  0
  6  7  2  0
  6  8  1  0
  8  9  1  0
  9 10  2  0
  9 14  1  0
 10 11  1  0
 11 12  2  0
 12 13  1  0
 13 14  2  0
 14 15  1  0
 15 16  2  0
 15 17  1  0
 17 18  1  0
 19 18  1  1
 19 20  1  0
 26 19  1  1
 19 31  1  0
 20 21  1  0
 21 22  1  0
 22 23  1  1
 25 22  1  6
 23 24  1  0
 25 26  1  0
 25 27  1  0
 25 32  1  0
 26 47  1  0
 27 28  1  1
 27 45  1  0
 28 29  1  0
 28 31  1  0
 29 30  1  0
 32 33  1  1
 39 32  1  6
 34 33  1  1
 34 35  1  0
 34 40  1  0
 35 36  1  1
 35 38  1  0
 36 37  1  0
 38 43  1  0
 39 40  1  0
 39 43  1  0
 40 41  1  1
 41 42  1  0
 43 44  1  1
 43 45  1  0
 45 46  1  1
 45 47  1  0
 47 48  1  6
 48 49  1  0
M  END
>  <NetFormalCharge>  (63) 
0

$$$$
MLL
     RDKit          3D

 10  9  0  0  1  0  0  0  0  0999 V2000
    2.7100   -5.2100   -0.8370 N   0  0  0  0  0  0  0  0  0  0  0  0
    1.5160   -4.4650   -0.5300 C   0  0  1  0  0  0  0  0  0  0  0  0
    1.7290   -2.9510   -0.6190 C   0  0  0  0  0  0  0  0  0  0  0  0
    0.4900   -2.1040   -0.2670 C   0  0  0  0  0  0  0  0  0  0  0  0
    0.0090   -2.4520    1.1440 C   0  0  0  0  0  0  0  0  0  0  0  0
    0.7650   -0.6020   -0.3620 C   0  0  0  0  0  0  0  0  0  0  0  0
    0.4680   -4.9020   -1.5350 C   0  0  0  0  0  0  0  0  0  0  0  0
   -0.5590   -5.5080   -1.2590 O   0  0  0  0  0  0  0  0  0  0  0  0
    0.8780   -4.5570   -2.7920 O   0  0  0  0  0  0  0  0  0  0  0  0
    0.0070   -4.9540   -3.8560 C   0  0  0  0  0  0  0  0  0  0  0  0
  2  1  1  6
  2  3  1  0
  2  7  1  0
  3  4  1  0
  4  5  1  0
  4  6  1  0
  7  8  2  0
  7  9  1  0
  9 10  1  0
M  END
>  <NetFormalCharge>  (64) 
0

$$$$
MLM
     RDKit          3D

  7  6  0  0  0  0  0  0  0  0999 V2000
   -0.0700    0.0000   -1.2080 C   0  0  0  0  0  0  0  0  0  0  0  0
   -0.6380    0.0000   -2.4240 O   0  0  0  0  0  0  0  0  0  0  0  0
    1.1320    0.0000   -1.1030 O   0  0  0  0  0  0  0  0  0  0  0  0
   -0.9340   -0.0000    0.0260 C   0  0  0  0  0  0  0  0  0  0  0  0
   -0.0580   -0.0000    1.2520 C   0  0  0  0  0  0  0  0  0  0  0  0
    1.1480    0.0000    1.1350 O   0  0  0  0  0  0  0  0  0  0  0  0
   -0.6160   -0.0000    2.4790 N   0  0  0  0  0  0  0  0  0  0  0  0
  1  2  1  0
  1  3  2  0
  1  4  1  0
  4  5  1  0
  5  6  2  0
  5  7  1  0
M  END
>  <NetFormalCharge>  (65) 
0

$$$$
MLN
     RDKit          3D

 30 30  0  0  1  0  0  0  0  0999 V2000
    2.9750   -0.8880    0.1350 O   0  0  0  0  0  0  0  0  0  0  0  0
    4.5150   -0.7200    0.6000 P   0  0  0  0  0  0  0  0  0  0  0  0
    5.4720   -1.7230    0.0240 O   0  0  0  0  0  0  0  0  0  0  0  0
    4.8550    0.8240    0.2580 O   0  0  0  0  0  0  0  0  0  0  0  0
    4.4180   -0.7180    2.2140 O   0  0  0  0  0  0  0  0  0  0  0  0
    4.8910    1.2220   -1.1040 C   0  0  2  0  0  0  0  0  0  0  0  0
    5.9600    0.4040   -1.8170 C   0  0  0  0  0  0  0  0  0  0  0  0
    5.1740    2.7240   -1.2140 C   0  0  0  0  0  0  0  0  0  0  0  0
    4.0940    3.5640   -0.5220 C   0  0  0  0  0  0  0  0  0  0  0  0
    4.3380    5.0710   -0.6300 C   0  0  0  0  0  0  0  0  0  0  0  0
    3.2310    5.9110   -0.0110 C   0  0  0  0  0  0  0  0  0  0  0  0
    6.9920    0.0370   -1.2590 O   0  0  0  0  0  0  0  0  0  0  0  0
    5.6210    0.1170   -3.1310 N   0  0  0  0  0  0  0  0  0  0  0  0
    6.4660   -0.6620   -4.0050 C   0  0  1  0  0  0  0  0  0  0  0  0
    5.6610   -1.3980   -5.0850 C   0  0  0  0  0  0  0  0  0  0  0  0
    4.6560   -2.4370   -4.5470 C   0  0  0  0  0  0  0  0  0  0  0  0
    5.3940   -3.4820   -3.7060 C   0  0  0  0  0  0  0  0  0  0  0  0
    3.5460   -1.7950   -3.7130 C   0  0  0  0  0  0  0  0  0  0  0  0
    7.4600    0.3030   -4.6530 C   0  0  0  0  0  0  0  0  0  0  0  0
    8.6830   -0.3220   -4.8890 N   0  0  0  0  0  0  0  0  0  0  0  0
    7.1500    1.4540   -4.9460 O   0  0  0  0  0  0  0  0  0  0  0  0
    9.8430    0.2420   -5.4710 C   0  0  0  0  0  0  0  0  0  0  0  0
   10.9730   -0.5440   -5.6270 C   0  0  0  0  0  0  0  0  0  0  0  0
   12.1160    0.0120   -6.2010 C   0  0  0  0  0  0  0  0  0  0  0  0
   12.1130    1.3460   -6.6100 C   0  0  0  0  0  0  0  0  0  0  0  0
   10.9670    2.1230   -6.4450 C   0  0  0  0  0  0  0  0  0  0  0  0
    9.8240    1.5670   -5.8710 C   0  0  0  0  0  0  0  0  0  0  0  0
   13.2770    1.9110   -7.1940 N   0  0  0  0  0  0  0  0  0  0  0  0
   14.2980    1.1950   -7.3330 O   0  0  0  0  0  0  0  0  0  0  0  0
   13.2540    3.1130   -7.5550 O   0  0  0  0  0  0  0  0  0  0  0  0
  1  2  1  0
  2  3  2  0
  2  4  1  0
  2  5  1  0
  4  6  1  0
  6  7  1  0
  6  8  1  1
  7 12  2  0
  7 13  1  0
  8  9  1  0
  9 10  1  0
 10 11  1  0
 13 14  1  0
 14 15  1  6
 14 19  1  0
 15 16  1  0
 16 17  1  0
 16 18  1  0
 19 20  1  0
 19 21  2  0
 20 22  1  0
 22 23  2  0
 22 27  1  0
 23 24  1  0
 24 25  2  0
 25 26  1  0
 25 28  1  0
 26 27  2  0
 28 29  1  0
 28 30  2  0
M  CHG  2  28   1  29  -1
M  END
>  <NetFormalCharge>  (66) 
0

$$$$
MLP
     RDKit          3D

  8  8  0  0  0  0  0  0  0  0999 V2000
   -1.9070   -0.8220    0.6840 C   0  0  0  0  0  0  0  0  0  0  0  0
   -1.8850   -0.6780   -0.8390 C   0  0  0  0  0  0  0  0  0  0  0  0
   -1.0150    0.2340    0.0290 C   0  0  0  0  0  0  0  0  0  0  0  0
   -1.4230    1.6400    0.1550 N   0  0  0  0  0  0  0  0  0  0  0  0
    0.7830   -0.0650    0.0270 P   0  0  2  0  0  0  0  0  0  0  0  0
    1.4910    0.9240   -1.0270 O   0  0  0  0  0  0  0  0  0  0  0  0
    1.0610   -1.5310   -0.3760 O   0  0  0  0  0  0  0  0  0  0  0  0
    1.3500    0.1970    1.4400 O   0  0  0  0  0  0  0  0  0  0  0  0
  1  2  1  0
  1  3  1  0
  2  3  1  0
  3  4  1  0
  3  5  1  0
  5  6  1  6
  5  7  1  0
  5  8  2  0
M  CHG  1   7  -1
M  END
>  <NetFormalCharge>  (67) 
-1

$$$$
MLQ
     RDKit          3D

 32 34  0  0  1  0  0  0  0  0999 V2000
   -1.7510    0.4150   -0.4450 N   0  0  0  0  0  0  0  0  0  0  0  0
    4.5430   -0.8620   -1.4350 C   0  0  0  0  0  0  0  0  0  0  0  0
   -3.6930   -3.0030   -0.9620 O   0  0  0  0  0  0  0  0  0  0  0  0
    2.0850    1.9500   -0.2280 C   0  0  0  0  0  0  0  0  0  0  0  0
    1.5560    1.7070   -1.4930 C   0  0  0  0  0  0  0  0  0  0  0  0
    0.2900    1.1980   -1.6330 C   0  0  0  0  0  0  0  0  0  0  0  0
    5.4360    1.0650    1.9470 Cl  0  0  0  0  0  0  0  0  0  0  0  0
    5.1390   -0.1900    0.7850 C   0  0  0  0  0  0  0  0  0  0  0  0
    5.2630   -1.5180    1.1540 C   0  0  0  0  0  0  0  0  0  0  0  0
    5.0310   -2.5170    0.2270 C   0  0  0  0  0  0  0  0  0  0  0  0
    5.1860   -4.1830    0.6890 Cl  0  0  0  0  0  0  0  0  0  0  0  0
    4.7790    0.1370   -0.5100 C   0  0  0  0  0  0  0  0  0  0  0  0
    4.6660   -2.1890   -1.0670 C   0  0  0  0  0  0  0  0  0  0  0  0
    4.6220    1.8280   -0.9800 S   0  0  0  0  0  0  0  0  0  0  0  0
    5.8060    2.4790   -0.5380 O   0  0  0  0  0  0  0  0  0  0  0  0
    4.1940    1.8300   -2.3350 O   0  0  0  0  0  0  0  0  0  0  0  0
    3.3780    2.4690   -0.0960 N   0  0  0  0  0  0  0  0  0  0  0  0
    1.3290    1.6760    0.8980 C   0  0  0  0  0  0  0  0  0  0  0  0
    0.0420    1.1600    0.7680 C   0  0  0  0  0  0  0  0  0  0  0  0
   -0.4980    0.9130   -0.4980 C   0  0  0  0  0  0  0  0  0  0  0  0
   -1.1550    0.7130    1.9810 S   0  0  0  0  0  0  0  0  0  0  0  0
   -2.2780    0.2340    0.7170 C   0  0  0  0  0  0  0  0  0  0  0  0
   -3.8970   -0.4040    0.9990 S   0  0  0  0  0  0  0  0  0  0  0  0
   -4.4350   -0.6620   -0.7100 C   0  0  1  0  0  0  0  0  0  0  0  0
   -3.5790   -1.7240   -1.3510 C   0  0  0  0  0  0  0  0  0  0  0  0
   -2.7900   -1.4230   -2.2160 O   0  0  0  0  0  0  0  0  0  0  0  0
   -5.8980   -1.1100   -0.7220 C   0  0  0  0  0  0  0  0  0  0  0  0
   -6.7810    0.0190   -0.1860 C   0  0  0  0  0  0  0  0  0  0  0  0
   -8.2440   -0.4290   -0.1980 C   0  0  0  0  0  0  0  0  0  0  0  0
   -9.1270    0.6990    0.3390 C   0  0  0  0  0  0  0  0  0  0  0  0
  -10.5900    0.2520    0.3270 C   0  0  0  0  0  0  0  0  0  0  0  0
  -11.4730    1.3800    0.8630 C   0  0  0  0  0  0  0  0  0  0  0  0
  1 22  2  0
  2 13  2  0
  4 18  1  0
  5  4  2  0
  5  6  1  0
  6 20  2  0
  7  8  1  0
  8  9  1  0
  9 10  2  0
 10 13  1  0
 10 11  1  0
 12  8  2  0
 12  2  1  0
 14 17  1  0
 14 16  2  0
 14 12  1  0
 15 14  2  0
 17  4  1  0
 18 19  2  0
 19 21  1  0
 20 19  1  0
 20  1  1  0
 21 22  1  0
 22 23  1  0
 23 24  1  0
 24 25  1  0
 25 26  2  0
 25  3  1  0
 24 27  1  1
 27 28  1  0
 28 29  1  0
 29 30  1  0
 30 31  1  0
 31 32  1  0
M  END
>  <NetFormalCharge>  (68) 
0

$$$$
MLR
     RDKit          3D

 34 36  0  0  1  0  0  0  0  0999 V2000
    5.7920    1.4850    0.1550 C   0  0  1  0  0  0  0  0  0  0  0  0
    5.7180    0.0800    0.7590 C   0  0  1  0  0  0  0  0  0  0  0  0
    4.5920   -0.7020    0.0750 C   0  0  2  0  0  0  0  0  0  0  0  0
    3.2790    0.0700    0.2360 C   0  0  1  0  0  0  0  0  0  0  0  0
    3.4470    1.4750   -0.3480 C   0  0  1  0  0  0  0  0  0  0  0  0
    2.1590    2.2730   -0.1380 C   0  0  0  0  0  0  0  0  0  0  0  0
    6.1120    1.3900   -1.2350 O   0  0  0  0  0  0  0  0  0  0  0  0
    6.9610   -0.5940    0.5530 O   0  0  0  0  0  0  0  0  0  0  0  0
    4.4670   -1.9890    0.6830 O   0  0  0  0  0  0  0  0  0  0  0  0
    2.2350   -0.6140   -0.4600 O   0  0  0  0  0  0  0  0  0  0  0  0
    4.5300    2.1360    0.3100 O   0  0  0  0  0  0  0  0  0  0  0  0
    2.2820    3.5500   -0.7660 O   0  0  0  0  0  0  0  0  0  0  0  0
    1.6120   -1.6510    0.3010 C   0  0  2  0  0  0  0  0  0  0  0  0
    0.7420   -2.5090   -0.6220 C   0  0  1  0  0  0  0  0  0  0  0  0
   -0.3680   -1.6390   -1.2190 C   0  0  2  0  0  0  0  0  0  0  0  0
   -1.1760   -1.0080   -0.0800 C   0  0  1  0  0  0  0  0  0  0  0  0
   -0.2320   -0.2080    0.8220 C   0  0  1  0  0  0  0  0  0  0  0  0
   -1.0210    0.3760    1.9960 C   0  0  0  0  0  0  0  0  0  0  0  0
    1.5460   -3.0450   -1.6740 O   0  0  0  0  0  0  0  0  0  0  0  0
   -1.2290   -2.4470   -2.0240 O   0  0  0  0  0  0  0  0  0  0  0  0
   -2.1690   -0.1370   -0.6240 O   0  0  0  0  0  0  0  0  0  0  0  0
    0.7940   -1.0690    1.3190 O   0  0  0  0  0  0  0  0  0  0  0  0
   -0.1610    1.2010    2.7840 O   0  0  0  0  0  0  0  0  0  0  0  0
   -3.3810   -0.7970   -0.9950 C   0  0  2  0  0  0  0  0  0  0  0  0
   -4.2410    0.1500   -1.8370 C   0  0  1  0  0  0  0  0  0  0  0  0
   -4.6160    1.3720   -0.9940 C   0  0  2  0  0  0  0  0  0  0  0  0
   -5.3380    0.9030    0.2730 C   0  0  1  0  0  0  0  0  0  0  0  0
   -4.4360   -0.0720    1.0340 C   0  0  1  0  0  0  0  0  0  0  0  0
   -5.1740   -0.5920    2.2690 C   0  0  0  0  0  0  0  0  0  0  0  0
   -3.5030    0.5700   -2.9860 O   0  0  0  0  0  0  0  0  0  0  0  0
   -5.4790    2.2260   -1.7470 O   0  0  0  0  0  0  0  0  0  0  0  0
   -5.6290    2.0300    1.1020 O   0  0  0  0  0  0  0  0  0  0  0  0
   -4.1000   -1.1700    0.1830 O   0  0  0  0  0  0  0  0  0  0  0  0
   -4.2930   -1.4110    3.0410 O   0  0  0  0  0  0  0  0  0  0  0  0
  1  2  1  0
  1  7  1  6
  1 11  1  0
  2  3  1  0
  2  8  1  6
  3  9  1  1
  3  4  1  0
  4  5  1  0
  4 10  1  6
  5  6  1  1
  5 11  1  0
  6 12  1  0
 13 10  1  6
 13 14  1  0
 13 22  1  0
 14 19  1  6
 14 15  1  0
 15 20  1  6
 15 16  1  0
 16 17  1  0
 16 21  1  6
 17 22  1  0
 17 18  1  1
 18 23  1  0
 24 21  1  1
 24 25  1  0
 24 33  1  0
 25 30  1  6
 25 26  1  0
 26 27  1  0
 26 31  1  6
 27 28  1  0
 27 32  1  1
 28 33  1  0
 28 29  1  1
 29 34  1  0
M  END
>  <NetFormalCharge>  (69) 
0

$$$$
MLS
     RDKit          3D

 25 27  0  0  0  0  0  0  0  0999 V2000
   -2.1710   -0.7910    0.4270 C   0  0  0  0  0  0  0  0  0  0  0  0
   -3.2280   -0.7710   -0.4290 C   0  0  0  0  0  0  0  0  0  0  0  0
   -4.1160    0.3190   -0.4120 C   0  0  0  0  0  0  0  0  0  0  0  0
   -3.8940    1.3820    0.4990 C   0  0  0  0  0  0  0  0  0  0  0  0
   -4.7810    2.4710    0.5160 C   0  0  0  0  0  0  0  0  0  0  0  0
   -5.8390    2.4910   -0.3400 C   0  0  0  0  0  0  0  0  0  0  0  0
   -6.0580    1.4460   -1.2350 C   0  0  0  0  0  0  0  0  0  0  0  0
    6.8070    1.2810    0.0360 C   0  0  0  0  0  0  0  0  0  0  0  0
    5.3060    1.4110   -0.0080 C   0  0  0  0  0  0  0  0  0  0  0  0
    4.5210    0.2880   -0.2040 C   0  0  0  0  0  0  0  0  0  0  0  0
    5.0980   -0.9240   -0.3550 F   0  0  0  0  0  0  0  0  0  0  0  0
    3.1290    0.4120   -0.2430 C   0  0  0  0  0  0  0  0  0  0  0  0
    2.5430    1.6700   -0.0850 C   0  0  0  0  0  0  0  0  0  0  0  0
    3.3380    2.7790    0.1090 C   0  0  0  0  0  0  0  0  0  0  0  0
    4.7150    2.6500    0.1530 C   0  0  0  0  0  0  0  0  0  0  0  0
    2.2830   -0.7800   -0.4520 C   0  0  0  0  0  0  0  0  0  0  0  0
    2.7970   -1.8730   -0.5900 O   0  0  0  0  0  0  0  0  0  0  0  0
    0.9420   -0.6570   -0.4900 N   0  0  0  0  0  0  0  0  0  0  0  0
    0.1400   -1.7880   -0.6880 N   0  0  0  0  0  0  0  0  0  0  0  0
   -1.0560   -2.1550    0.3980 S   0  0  0  0  0  0  0  0  0  0  0  0
   -0.4390   -2.1970    1.6770 O   0  0  0  0  0  0  0  0  0  0  0  0
   -1.7760   -3.2490   -0.1540 O   0  0  0  0  0  0  0  0  0  0  0  0
   -5.2190    0.3750   -1.2800 C   0  0  0  0  0  0  0  0  0  0  0  0
   -2.7900    1.3260    1.3680 C   0  0  0  0  0  0  0  0  0  0  0  0
   -1.9520    0.2550    1.3230 C   0  0  0  0  0  0  0  0  0  0  0  0
  1  2  2  0
  1 25  1  0
  2  3  1  0
  3 23  2  0
  3  4  1  0
  4  5  2  0
  5  6  1  0
  7  6  2  0
  9  8  1  0
 10  9  2  0
 10 11  1  0
 12 10  1  0
 13 14  1  0
 13 12  2  0
 14 15  2  0
 15  9  1  0
 16 12  1  0
 16 18  1  0
 17 16  2  0
 19 18  1  0
 19 20  1  0
 20 21  2  0
 20  1  1  0
 22 20  2  0
 23  7  1  0
 24  4  1  0
 25 24  2  0
M  END
>  <NetFormalCharge>  (70) 
0

$$$$
MLT
     RDKit          3D

  9  8  0  0  1  0  0  0  0  0999 V2000
    1.8710    0.1840    0.0570 C   0  0  0  0  0  0  0  0  0  0  0  0
    2.6370   -0.5120   -0.5650 O   0  0  0  0  0  0  0  0  0  0  0  0
    2.2640    1.3920    0.4910 O   0  0  0  0  0  0  0  0  0  0  0  0
    0.4730   -0.3000    0.3420 C   0  0  2  0  0  0  0  0  0  0  0  0
    0.3310   -1.6450   -0.1210 O   0  0  0  0  0  0  0  0  0  0  0  0
   -0.5340    0.5970   -0.3810 C   0  0  0  0  0  0  0  0  0  0  0  0
   -1.9340    0.1890    0.0000 C   0  0  0  0  0  0  0  0  0  0  0  0
   -2.1080   -0.7250    0.7710 O   0  0  0  0  0  0  0  0  0  0  0  0
   -2.9870    0.8410   -0.5160 O   0  0  0  0  0  0  0  0  0  0  0  0
  1  2  2  0
  1  3  1  0
  1  4  1  0
  4  5  1  6
  4  6  1  0
  6  7  1  0
  7  8  2  0
  7  9  1  0
M  END
>  <NetFormalCharge>  (71) 
0

$$$$
MLU
     RDKit          3D

 10  9  0  0  1  0  0  0  0  0999 V2000
    0.5150   -1.4160   -0.5040 N   0  0  0  0  0  0  0  0  0  0  0  0
    1.1920   -2.3930    0.3590 C   0  0  0  0  0  0  0  0  0  0  0  0
    0.3800   -0.1190    0.1730 C   0  0  1  0  0  0  0  0  0  0  0  0
    1.6490    0.6740   -0.0040 C   0  0  0  0  0  0  0  0  0  0  0  0
    2.3580    0.4740   -0.9620 O   0  0  0  0  0  0  0  0  0  0  0  0
   -0.7940    0.6530   -0.4320 C   0  0  0  0  0  0  0  0  0  0  0  0
   -2.0980   -0.0920   -0.1430 C   0  0  0  0  0  0  0  0  0  0  0  0
   -2.3550   -0.1030    1.3660 C   0  0  0  0  0  0  0  0  0  0  0  0
   -3.2560    0.6120   -0.8530 C   0  0  0  0  0  0  0  0  0  0  0  0
    1.9920    1.6040    0.9010 O   0  0  0  0  0  0  0  0  0  0  0  0
  1  2  1  0
  1  3  1  0
  3  4  1  0
  3  6  1  6
  4  5  2  0
  4 10  1  0
  6  7  1  0
  7  8  1  0
  7  9  1  0
M  END
>  <NetFormalCharge>  (72) 
0

$$$$
MLV
     RDKit          3D

 26 28  0  0  0  0  0  0  0  0999 V2000
    0.0200   -0.7710    0.5130 C   0  0  0  0  0  0  0  0  0  0  0  0
   -1.0400    0.2380    0.3120 C   0  0  0  0  0  0  0  0  0  0  0  0
   -3.3680    0.8020    0.0260 C   0  0  0  0  0  0  0  0  0  0  0  0
   -2.3760   -0.1590    0.2160 C   0  0  0  0  0  0  0  0  0  0  0  0
   -0.7100    1.5930    0.2220 C   0  0  0  0  0  0  0  0  0  0  0  0
   -1.7000    2.5350    0.0350 C   0  0  0  0  0  0  0  0  0  0  0  0
   -3.0230    2.1480   -0.0650 C   0  0  0  0  0  0  0  0  0  0  0  0
   -4.7900    0.3900   -0.0820 C   0  0  0  0  0  0  0  0  0  0  0  0
   -7.4420   -0.3790   -0.2850 C   0  0  0  0  0  0  0  0  0  0  0  0
   -7.0830    0.6350    0.5840 C   0  0  0  0  0  0  0  0  0  0  0  0
   -5.7620    1.0230    0.6890 C   0  0  0  0  0  0  0  0  0  0  0  0
   -6.4820   -1.0030   -1.0620 C   0  0  0  0  0  0  0  0  0  0  0  0
   -5.1580   -0.6280   -0.9610 C   0  0  0  0  0  0  0  0  0  0  0  0
   -2.7040   -1.4660    0.3060 F   0  0  0  0  0  0  0  0  0  0  0  0
   -0.2690   -1.9490    0.5850 O   0  0  0  0  0  0  0  0  0  0  0  0
    1.3080   -0.3850    0.6110 N   0  0  0  0  0  0  0  0  0  0  0  0
    2.3130   -1.3420    0.8010 N   0  0  0  0  0  0  0  0  0  0  0  0
    3.5940   -1.4170   -0.2450 S   0  0  0  0  0  0  0  0  0  0  0  0
    4.4990   -2.3690    0.2960 O   0  0  0  0  0  0  0  0  0  0  0  0
    3.0410   -1.5250   -1.5500 O   0  0  0  0  0  0  0  0  0  0  0  0
    4.4130    0.1420   -0.1800 C   0  0  0  0  0  0  0  0  0  0  0  0
    4.0320    1.1590   -1.0350 C   0  0  0  0  0  0  0  0  0  0  0  0
    4.6740    2.3820   -0.9840 C   0  0  0  0  0  0  0  0  0  0  0  0
    5.6980    2.5880   -0.0780 C   0  0  0  0  0  0  0  0  0  0  0  0
    6.0790    1.5700    0.7770 C   0  0  0  0  0  0  0  0  0  0  0  0
    5.4330    0.3490    0.7290 C   0  0  0  0  0  0  0  0  0  0  0  0
  1  2  1  0
  1 16  1  0
  2  5  2  0
  3  7  1  0
  4  3  2  0
  4  2  1  0
  5  6  1  0
  7  6  2  0
  8 11  2  0
  8  3  1  0
  9 10  2  0
 10 11  1  0
 12  9  1  0
 12 13  2  0
 13  8  1  0
 14  4  1  0
 15  1  2  0
 17 16  1  0
 17 18  1  0
 18 20  2  0
 18 21  1  0
 19 18  2  0
 21 26  1  0
 21 22  2  0
 22 23  1  0
 23 24  2  0
 25 24  1  0
 26 25  2  0
M  END
>  <NetFormalCharge>  (73) 
0

$$$$
MLW
     RDKit          3D

 16 18  0  0  0  0  0  0  0  0999 V2000
    1.1020    0.3010    0.0010 C   0  0  0  0  0  0  0  0  0  0  0  0
    2.2880    1.0740    0.0000 C   0  0  0  0  0  0  0  0  0  0  0  0
    3.6220    0.6100    0.0000 C   0  0  0  0  0  0  0  0  0  0  0  0
   -0.2590    0.8540    0.0010 C   0  0  0  0  0  0  0  0  0  0  0  0
   -0.7730    2.1520    0.0010 C   0  0  0  0  0  0  0  0  0  0  0  0
   -2.1350    2.3470    0.0000 C   0  0  0  0  0  0  0  0  0  0  0  0
   -2.9990    1.2610    0.0000 C   0  0  0  0  0  0  0  0  0  0  0  0
   -2.5070   -0.0270    0.0000 C   0  0  0  0  0  0  0  0  0  0  0  0
   -1.1310   -0.2470    0.0000 C   0  0  0  0  0  0  0  0  0  0  0  0
    2.1400    2.2870   -0.0010 O   0  0  0  0  0  0  0  0  0  0  0  0
    4.0680   -0.6780    0.0010 C   0  0  0  0  0  0  0  0  0  0  0  0
    3.3380   -1.8680    0.0010 C   0  0  0  0  0  0  0  0  0  0  0  0
    1.9880   -2.0580    0.0010 C   0  0  0  0  0  0  0  0  0  0  0  0
    0.9660   -1.0930   -0.0050 C   0  0  0  0  0  0  0  0  0  0  0  0
   -0.3720   -1.4010    0.0000 N   0  0  0  0  0  0  0  0  0  0  0  0
   -3.6010   -1.3740   -0.0000 Cl  0  0  0  0  0  0  0  0  0  0  0  0
  1  4  1  0
  2  1  1  0
  2 10  2  0
  3  2  1  0
  4  5  2  0
  5  6  1  0
  7  6  2  0
  8  7  1  0
  9  4  1  0
  9  8  2  0
 11  3  2  0
 12 11  1  0
 12 13  2  0
 13 14  1  0
 14 15  1  0
 14  1  2  0
 15  9  1  0
 16  8  1  0
M  END
>  <NetFormalCharge>  (74) 
0

$$$$
MLX
     RDKit          3D

 24 24  0  0  0  0  0  0  0  0999 V2000
    2.7530    2.6070   -0.5320 C   0  0  0  0  0  0  0  0  0  0  0  0
    1.5080    2.3450    0.2780 C   0  0  0  0  0  0  0  0  0  0  0  0
    0.7710    3.2620    0.5700 O   0  0  0  0  0  0  0  0  0  0  0  0
    1.2160    1.0910    0.6760 N   0  0  0  0  0  0  0  0  0  0  0  0
   -0.0490    0.8170    1.3630 C   0  0  0  0  0  0  0  0  0  0  0  0
   -1.1230    0.4660    0.3320 C   0  0  0  0  0  0  0  0  0  0  0  0
   -2.4440    0.1800    1.0500 C   0  0  0  0  0  0  0  0  0  0  0  0
   -3.4730   -0.1570    0.0630 N   0  0  0  0  0  0  0  0  0  0  0  0
   -4.7250   -0.4480    0.4670 C   0  0  0  0  0  0  0  0  0  0  0  0
   -5.0000   -0.4320    1.6480 O   0  0  0  0  0  0  0  0  0  0  0  0
   -5.7840   -0.7940   -0.5480 C   0  0  0  0  0  0  0  0  0  0  0  0
   -6.9910   -1.0560    0.1080 F   0  0  0  0  0  0  0  0  0  0  0  0
   -5.9540    0.2800   -1.4290 F   0  0  0  0  0  0  0  0  0  0  0  0
   -5.3880   -1.9280   -1.2670 F   0  0  0  0  0  0  0  0  0  0  0  0
    2.1200    0.0510    0.4340 C   0  0  0  0  0  0  0  0  0  0  0  0
    2.7670   -0.5700    1.4950 C   0  0  0  0  0  0  0  0  0  0  0  0
    3.6590   -1.5960    1.2530 C   0  0  0  0  0  0  0  0  0  0  0  0
    3.9080   -2.0060   -0.0440 C   0  0  0  0  0  0  0  0  0  0  0  0
    4.8690   -3.1020   -0.3010 N   0  0  0  0  0  0  0  0  0  0  0  0
    5.0930   -3.4610   -1.4430 O   0  0  0  0  0  0  0  0  0  0  0  0
    5.4360   -3.6450    0.6310 O   0  0  0  0  0  0  0  0  0  0  0  0
    3.2660   -1.3900   -1.1030 C   0  0  0  0  0  0  0  0  0  0  0  0
    2.3680   -0.3670   -0.8670 C   0  0  0  0  0  0  0  0  0  0  0  0
    2.9450    4.3830   -0.7790 Cl  0  0  0  0  0  0  0  0  0  0  0  0
  1  2  1  0
  1 24  1  0
  2  4  1  0
  2  3  2  0
  4  5  1  0
  5  6  1  0
  6  7  1  0
  7  8  1  0
  9  8  1  0
  9 11  1  0
 10  9  2  0
 11 12  1  0
 13 11  1  0
 14 11  1  0
 15  4  1  0
 16 15  2  0
 17 16  1  0
 18 22  1  0
 18 17  2  0
 19 18  1  0
 20 19  2  0
 21 19  1  0
 22 23  2  0
 23 15  1  0
M  CHG  2  19   1  21  -1
M  END
>  <NetFormalCharge>  (75) 
0

$$$$
MLY
     RDKit          3D

 12 11  0  0  1  0  0  0  0  0999 V2000
   -1.7960   -0.0120   -2.2010 N   0  0  0  0  0  0  0  0  0  0  0  0
   -0.4080    0.4670   -2.2560 C   0  0  1  0  0  0  0  0  0  0  0  0
    0.3520   -0.0330   -1.0260 C   0  0  0  0  0  0  0  0  0  0  0  0
   -0.3210    0.4960    0.2400 C   0  0  0  0  0  0  0  0  0  0  0  0
    0.4390   -0.0030    1.4700 C   0  0  0  0  0  0  0  0  0  0  0  0
   -0.2330    0.5260    2.7370 C   0  0  0  0  0  0  0  0  0  0  0  0
    0.4960    0.0450    3.9170 N   0  0  0  0  0  0  0  0  0  0  0  0
   -0.1970    0.5870    5.0930 C   0  0  0  0  0  0  0  0  0  0  0  0
    0.3210   -1.4120    3.9580 C   0  0  0  0  0  0  0  0  0  0  0  0
    0.2540   -0.0540   -3.5040 C   0  0  0  0  0  0  0  0  0  0  0  0
   -0.0890   -1.1130   -3.9730 O   0  0  0  0  0  0  0  0  0  0  0  0
    1.2270    0.6560   -4.0950 O   0  0  0  0  0  0  0  0  0  0  0  0
  2  1  1  1
  2  3  1  0
  2 10  1  0
  3  4  1  0
  4  5  1  0
  5  6  1  0
  6  7  1  0
  7  8  1  0
  7  9  1  0
 10 11  2  0
 10 12  1  0
M  END
>  <NetFormalCharge>  (76) 
0

$$$$
MLZ
     RDKit          3D

 11 10  0  0  1  0  0  0  0  0999 V2000
    0.3060   -2.1260   -2.6010 N   0  0  0  0  0  0  0  0  0  0  0  0
    0.1640   -0.6960   -2.6950 C   0  0  1  0  0  0  0  0  0  0  0  0
    1.1720    0.0500   -1.8190 C   0  0  0  0  0  0  0  0  0  0  0  0
    1.0290   -0.2100   -0.3140 C   0  0  0  0  0  0  0  0  0  0  0  0
    2.0180    0.5950    0.5360 C   0  0  0  0  0  0  0  0  0  0  0  0
    1.9090    0.2860    2.0310 C   0  0  0  0  0  0  0  0  0  0  0  0
    2.8850    1.0340    2.8140 N   0  0  0  0  0  0  0  0  0  0  0  0
    2.7950    0.6880    4.2250 C   0  0  0  0  0  0  0  0  0  0  0  0
    0.3730   -0.3380   -4.1530 C   0  0  0  0  0  0  0  0  0  0  0  0
    1.1590   -0.8910   -4.9110 O   0  0  0  0  0  0  0  0  0  0  0  0
   -0.3890    0.7230   -4.5290 O   0  0  0  0  0  0  0  0  0  0  0  0
  2  1  1  6
  2  3  1  0
  2  9  1  0
  3  4  1  0
  4  5  1  0
  5  6  1  0
  6  7  1  0
  7  8  1  0
  9 10  2  0
  9 11  1  0
M  END
>  <NetFormalCharge>  (77) 
0

$$$$
MN
     RDKit          2D

  1  0  0  0  0  0  0  0  0  0999 V2000
    0.0000    0.0000    0.0000 Mn  0  0  0  0  0 15  0  0  0  0  0  0
M  CHG  1   1   2
M  END
>  <NetFormalCharge>  (78) 
2

$$$$
MPD
     RDKit          3D

  8  7  0  0  1  0  0  0  0  0999 V2000
   -1.2970   -0.4630   -1.4620 C   0  0  0  0  0  0  0  0  0  0  0  0
   -1.1180   -0.0870    0.0100 C   0  0  0  0  0  0  0  0  0  0  0  0
   -1.0610    1.3360    0.1340 O   0  0  0  0  0  0  0  0  0  0  0  0
   -2.3000   -0.6220    0.8200 C   0  0  0  0  0  0  0  0  0  0  0  0
    0.1810   -0.6980    0.5390 C   0  0  0  0  0  0  0  0  0  0  0  0
    1.3630   -0.1620   -0.2720 C   0  0  1  0  0  0  0  0  0  0  0  0
    1.4910    1.2450   -0.0550 O   0  0  0  0  0  0  0  0  0  0  0  0
    2.6470   -0.8650    0.1730 C   0  0  0  0  0  0  0  0  0  0  0  0
  1  2  1  0
  2  3  1  0
  2  4  1  0
  2  5  1  0
  5  6  1  0
  6  7  1  0
  6  8  1  1
M  END
>  <NetFormalCharge>  (79) 
0

$$$$
NA
     RDKit          2D

  1  0  0  0  0  0  0  0  0  0999 V2000
    0.0000    0.0000    0.0000 Na  0  0  0  0  0 15  0  0  0  0  0  0
M  CHG  1   1   1
M  END
>  <NetFormalCharge>  (80) 
1

$$$$
NAD
     RDKit          3D

 44 48  0  0  1  0  0  0  0  0999 V2000
   -0.8870   -0.8130   -0.6760 P   0  0  2  0  0  0  0  0  0  0  0  0
   -1.2580    0.1020   -1.7780 O   0  0  0  0  0  0  0  0  0  0  0  0
   -0.2490   -2.1590   -1.2870 O   0  0  0  0  0  0  0  0  0  0  0  0
   -2.2000   -1.1820    0.1800 O   0  0  0  0  0  0  0  0  0  0  0  0
   -3.1590   -1.7060   -0.7410 C   0  0  0  0  0  0  0  0  0  0  0  0
   -4.4370   -2.0790    0.0120 C   0  0  1  0  0  0  0  0  0  0  0  0
   -5.0680   -0.8930    0.5230 O   0  0  0  0  0  0  0  0  0  0  0  0
   -5.4340   -2.7540   -0.9500 C   0  0  1  0  0  0  0  0  0  0  0  0
   -5.7450   -4.0780   -0.5120 O   0  0  0  0  0  0  0  0  0  0  0  0
   -6.6930   -1.8500   -0.8810 C   0  0  1  0  0  0  0  0  0  0  0  0
   -7.8850   -2.6380   -0.8620 O   0  0  0  0  0  0  0  0  0  0  0  0
   -6.4930   -1.1160    0.4690 C   0  0  2  0  0  0  0  0  0  0  0  0
   -7.2160    0.1580    0.4790 N   0  0  0  0  0  0  0  0  0  0  0  0
   -6.7230    1.3680    0.0890 C   0  0  0  0  0  0  0  0  0  0  0  0
   -7.6350    2.2860    0.2290 N   0  0  0  0  0  0  0  0  0  0  0  0
   -8.7680    1.7250    0.7170 C   0  0  0  0  0  0  0  0  0  0  0  0
  -10.0420    2.2090    1.0590 C   0  0  0  0  0  0  0  0  0  0  0  0
  -10.3520    3.5500    0.9160 N   0  0  0  0  0  0  0  0  0  0  0  0
  -10.9420    1.3480    1.5240 N   0  0  0  0  0  0  0  0  0  0  0  0
  -10.6550    0.0670    1.6630 C   0  0  0  0  0  0  0  0  0  0  0  0
   -9.4760   -0.4310    1.3550 N   0  0  0  0  0  0  0  0  0  0  0  0
   -8.5140    0.3520    0.8780 C   0  0  0  0  0  0  0  0  0  0  0  0
    0.1910   -0.0930    0.2790 O   0  0  0  0  0  0  0  0  0  0  0  0
    1.2040    0.7070   -0.6830 P   0  0  2  0  0  0  0  0  0  0  0  0
    0.5560    2.0420   -1.1150 O   0  0  0  0  0  0  0  0  0  0  0  0
    1.5090   -0.1460   -1.9340 O   0  0  0  0  0  0  0  0  0  0  0  0
    2.5730    1.0070    0.1090 O   0  0  0  0  0  0  0  0  0  0  0  0
    3.4690    1.6100   -0.8270 C   0  0  0  0  0  0  0  0  0  0  0  0
    4.7970    1.9210   -0.1350 C   0  0  1  0  0  0  0  0  0  0  0  0
    5.4670    0.6980    0.2410 O   0  0  0  0  0  0  0  0  0  0  0  0
    5.7670    2.6180   -1.1150 C   0  0  1  0  0  0  0  0  0  0  0  0
    5.7450    4.0330   -0.9210 O   0  0  0  0  0  0  0  0  0  0  0  0
    7.1540    2.0400   -0.7460 C   0  0  1  0  0  0  0  0  0  0  0  0
    8.0310    3.0820   -0.3140 O   0  0  0  0  0  0  0  0  0  0  0  0
    6.8540    1.0620    0.4110 C   0  0  2  0  0  0  0  0  0  0  0  0
    7.7080   -0.1250    0.3100 N   0  0  0  0  0  0  0  0  0  0  0  0
    8.7630   -0.2220    1.0930 C   0  0  0  0  0  0  0  0  0  0  0  0
    9.6010   -1.3350    1.0170 C   0  0  0  0  0  0  0  0  0  0  0  0
   10.7890   -1.4420    1.8910 C   0  0  0  0  0  0  0  0  0  0  0  0
   11.0450   -0.5530    2.6800 O   0  0  0  0  0  0  0  0  0  0  0  0
   11.5880   -2.5240    1.8130 N   0  0  0  0  0  0  0  0  0  0  0  0
    9.2960   -2.3520    0.1040 C   0  0  0  0  0  0  0  0  0  0  0  0
    8.1730   -2.2040   -0.6900 C   0  0  0  0  0  0  0  0  0  0  0  0
    7.3950   -1.0670   -0.5590 C   0  0  0  0  0  0  0  0  0  0  0  0
  1  2  2  0
  1  3  1  6
  1  4  1  0
  1 23  1  0
  4  5  1  0
  6  5  1  6
  6  7  1  0
  6  8  1  0
  7 12  1  0
  8  9  1  1
  8 10  1  0
 10 11  1  1
 10 12  1  0
 12 13  1  6
 13 14  1  0
 13 22  1  0
 14 15  2  0
 15 16  1  0
 16 17  2  0
 16 22  1  0
 17 18  1  0
 17 19  1  0
 19 20  2  0
 20 21  1  0
 21 22  2  0
 23 24  1  0
 24 25  2  0
 24 26  1  6
 24 27  1  0
 27 28  1  0
 29 28  1  6
 29 30  1  0
 29 31  1  0
 30 35  1  0
 31 32  1  1
 31 33  1  0
 33 34  1  1
 33 35  1  0
 35 36  1  6
 36 37  2  0
 36 44  1  0
 37 38  1  0
 38 39  1  0
 38 42  2  0
 39 40  2  0
 39 41  1  0
 42 43  1  0
 43 44  2  0
M  CHG  2  26  -1  36   1
M  END
>  <NetFormalCharge>  (81) 
0

$$$$
NAG
     RDKit          3D

 15 15  0  0  1  0  0  0  0  0999 V2000
    0.1850    1.0820   -0.4210 C   0  0  2  0  0  0  0  0  0  0  0  0
    0.7900   -0.2200    0.1120 C   0  0  1  0  0  0  0  0  0  0  0  0
   -0.1240   -1.3900   -0.2650 C   0  0  2  0  0  0  0  0  0  0  0  0
   -1.5260   -1.1290    0.2940 C   0  0  1  0  0  0  0  0  0  0  0  0
   -2.0420    0.2070   -0.2460 C   0  0  1  0  0  0  0  0  0  0  0  0
   -3.4170    0.5040    0.3550 C   0  0  0  0  0  0  0  0  0  0  0  0
    3.1970    0.1570    0.0760 C   0  0  0  0  0  0  0  0  0  0  0  0
    4.5590   -0.0520   -0.5330 C   0  0  0  0  0  0  0  0  0  0  0  0
    2.1140   -0.4220   -0.4800 N   0  0  0  0  0  0  0  0  0  0  0  0
    1.0030    2.1850   -0.0240 O   0  0  0  0  0  0  0  0  0  0  0  0
    0.3950   -2.6000    0.2910 O   0  0  0  0  0  0  0  0  0  0  0  0
   -2.4050   -2.1800   -0.1140 O   0  0  0  0  0  0  0  0  0  0  0  0
   -1.1300    1.2480    0.1130 O   0  0  0  0  0  0  0  0  0  0  0  0
   -3.9490    1.6910   -0.2360 O   0  0  0  0  0  0  0  0  0  0  0  0
    3.0740    0.8450    1.0670 O   0  0  0  0  0  0  0  0  0  0  0  0
  1  2  1  0
  1 10  1  1
  1 13  1  0
  2  3  1  0
  2  9  1  6
  3  4  1  0
  3 11  1  1
  4  5  1  0
  4 12  1  6
  5  6  1  1
  5 13  1  0
  6 14  1  0
  7  8  1  0
  7  9  1  0
  7 15  2  0
M  END
>  <NetFormalCharge>  (82) 
0

$$$$

     RDKit          3D

  3  2  0  0  0  0  0  0  0  0999 V2000
   -0.8340   -0.2715    0.5725 N   0  0  0  0  0  0  0  0  0  0  0  0
    0.4036   -0.0940    0.3517 C   0  0  0  0  0  0  0  0  0  0  0  0
    1.9742    0.1314    0.0712 S   0  0  0  0  0  0  0  0  0  0  0  0
  1  2  2  0
  2  3  2  0
M  END
>  <LigandName>  (83) 
NCS⁻ (N-bound)

>  <SMILES>  (83) 
N=C=S

>  <FieldStrength>  (83) 
moderate

>  <MolecularWeight>  (83) 
59.09

>  <HDonors>  (83) 
1

>  <HAcceptors>  (83) 
2

>  <LogP>  (83) 
0.67

>  <NumAtoms>  (83) 
4

>  <NetFormalCharge>  (83) 
0

$$$$

     RDKit          3D

  3  2  0  0  0  0  0  0  0  0999 V2000
   -0.8340   -0.2715    0.5725 N   0  0  0  0  0  0  0  0  0  0  0  0
    0.4036   -0.0940    0.3517 C   0  0  0  0  0  0  0  0  0  0  0  0
    1.9742    0.1314    0.0712 S   0  0  0  0  0  0  0  0  0  0  0  0
  1  2  2  0
  2  3  2  0
M  END
>  <LigandName>  (84) 
NCS⁻ (N-bound)

>  <SMILES>  (84) 
N=C=S

>  <FieldStrength>  (84) 
moderate

>  <MolecularWeight>  (84) 
59.09

>  <HDonors>  (84) 
1

>  <HAcceptors>  (84) 
2

>  <LogP>  (84) 
0.67

>  <NumAtoms>  (84) 
4

>  <NetFormalCharge>  (84) 
0

$$$$

     RDKit          3D

  1  0  0  0  0  0  0  0  0  0999 V2000
   -0.0043    0.0112    0.2947 N   0  0  0  0  0  0  0  0  0  0  0  0
M  END
>  <LigandName>  (85) 
NH₃

>  <SMILES>  (85) 
N

>  <FieldStrength>  (85) 
moderate-strong

>  <MolecularWeight>  (85) 
17.03

>  <HDonors>  (85) 
1

>  <HAcceptors>  (85) 
1

>  <LogP>  (85) 
0.16

>  <NumAtoms>  (85) 
4

>  <NetFormalCharge>  (85) 
0

$$$$
NH4
     RDKit          3D

  1  0  0  0  0  0  0  0  0  0999 V2000
    0.0000    0.0000    0.0000 N   0  0  0  0  0  0  0  0  0  0  0  0
M  CHG  1   1   1
M  END
>  <NetFormalCharge>  (86) 
1

$$$$

     RDKit          3D

  3  2  0  0  0  0  0  0  0  0999 V2000
    1.1633   -0.1990    0.0000 O   0  0  0  0  0  0  0  0  0  0  0  0
   -0.0560    0.4348    0.0000 N   0  0  0  0  0  3  0  0  0  0  0  0
   -1.1072   -0.2358    0.0000 O   0  0  0  0  0  0  0  0  0  0  0  0
  1  2  1  0
  2  3  2  0
M  CHG  2   1  -1   2   1
M  RAD  1   2   2
M  END
>  <LigandName>  (87) 
NO₂⁻

>  <SMILES>  (87) 
[O-][N+](=O)

>  <FieldStrength>  (87) 
strong

>  <MolecularWeight>  (87) 
46.01

>  <HDonors>  (87) 
0

>  <HAcceptors>  (87) 
3

>  <LogP>  (87) 
-0.41

>  <NumAtoms>  (87) 
3

>  <NetFormalCharge>  (87) 
0

$$$$
NO3
     RDKit          2D

  4  3  0  0  0  0  0  0  0  0999 V2000
   -0.0000    0.0000   -0.0010 N   0  0  0  0  0  0  0  0  0  0  0  0
   -1.2180    0.0170    0.0000 O   0  0  0  0  0  0  0  0  0  0  0  0
    0.6230    1.0460    0.0000 O   0  0  0  0  0  0  0  0  0  0  0  0
    0.5950   -1.0630    0.0000 O   0  0  0  0  0  0  0  0  0  0  0  0
  1  2  2  0
  1  3  1  0
  1  4  1  0
M  CHG  3   1   1   3  -1   4  -1
M  END
>  <NetFormalCharge>  (88) 
-1

$$$$

     RDKit          3D

  4  3  0  0  0  0  0  0  0  0999 V2000
   -1.1348   -0.7469   -0.0082 O   0  0  0  0  0  0  0  0  0  0  0  0
   -0.0025    0.0317    0.0003 N   0  0  0  0  0  0  0  0  0  0  0  0
   -0.1007    1.2747    0.0130 O   0  0  0  0  0  0  0  0  0  0  0  0
    1.2380   -0.5595   -0.0052 O   0  0  0  0  0  0  0  0  0  0  0  0
  1  2  1  0
  2  3  2  0
  2  4  1  0
M  CHG  3   1  -1   2   1   4  -1
M  END
>  <LigandName>  (89) 
NO₃⁻

>  <SMILES>  (89) 
O=N(=O)[O-]

>  <FieldStrength>  (89) 
weak

>  <MolecularWeight>  (89) 
62.0

>  <HDonors>  (89) 
0

>  <HAcceptors>  (89) 
3

>  <LogP>  (89) 
-0.24

>  <NumAtoms>  (89) 
4

>  <NetFormalCharge>  (89) 
-1

$$$$

     RDKit          3D

  1  0  0  0  0  0  0  0  0  0999 V2000
    0.4951    0.0000    0.0000 O   0  0  0  0  0  0  0  0  0  0  0  0
M  CHG  1   1  -1
M  END
>  <LigandName>  (90) 
OH⁻

>  <SMILES>  (90) 
[OH-]

>  <FieldStrength>  (90) 
moderate

>  <MolecularWeight>  (90) 
17.01

>  <HDonors>  (90) 
0

>  <HAcceptors>  (90) 
1

>  <LogP>  (90) 
-0.18

>  <NumAtoms>  (90) 
2

>  <NetFormalCharge>  (90) 
-1

$$$$
PB
     RDKit          2D

  1  0  0  0  0  0  0  0  0  0999 V2000
    0.0000    0.0000    0.0000 Pb  0  0  0  0  0 15  0  0  0  0  0  0
M  CHG  1   1   2
M  END
>  <NetFormalCharge>  (91) 
2

$$$$
PEG
     RDKit          3D

  7  6  0  0  0  0  0  0  0  0999 V2000
   -2.3390   -0.0420   -0.5880 C   0  0  0  0  0  0  0  0  0  0  0  0
   -2.6670   -0.7840    0.5880 O   0  0  0  0  0  0  0  0  0  0  0  0
   -1.1620    0.8900   -0.2920 C   0  0  0  0  0  0  0  0  0  0  0  0
    0.0000    0.1120    0.0000 O   0  0  0  0  0  0  0  0  0  0  0  0
    1.1620    0.8900    0.2920 C   0  0  0  0  0  0  0  0  0  0  0  0
    2.3390   -0.0420    0.5880 C   0  0  0  0  0  0  0  0  0  0  0  0
    2.6670   -0.7840   -0.5890 O   0  0  0  0  0  0  0  0  0  0  0  0
  1  2  1  0
  1  3  1  0
  3  4  1  0
  4  5  1  0
  5  6  1  0
  6  7  1  0
M  END
>  <NetFormalCharge>  (92) 
0

$$$$
PGE
     RDKit          3D

 10  9  0  0  0  0  0  0  0  0999 V2000
    0.9130   -0.4580    3.4840 C   0  0  0  0  0  0  0  0  0  0  0  0
    0.9310    0.9390    3.7800 O   0  0  0  0  0  0  0  0  0  0  0  0
   -0.3140   -0.7830    2.6300 C   0  0  0  0  0  0  0  0  0  0  0  0
   -0.2560   -0.0390    1.4110 O   0  0  0  0  0  0  0  0  0  0  0  0
   -1.4230   -0.3830    0.6620 C   0  0  0  0  0  0  0  0  0  0  0  0
   -1.4230    0.3830   -0.6620 C   0  0  0  0  0  0  0  0  0  0  0  0
    0.9310   -0.9380   -3.7800 O   0  0  0  0  0  0  0  0  0  0  0  0
    0.9120    0.4590   -3.4840 C   0  0  0  0  0  0  0  0  0  0  0  0
   -0.3140    0.7830   -2.6300 C   0  0  0  0  0  0  0  0  0  0  0  0
   -0.2560    0.0390   -1.4110 O   0  0  0  0  0  0  0  0  0  0  0  0
  1  2  1  0
  1  3  1  0
  3  4  1  0
  4  5  1  0
  5  6  1  0
  6 10  1  0
  7  8  1  0
  8  9  1  0
  9 10  1  0
M  END
>  <NetFormalCharge>  (93) 
0

$$$$

     RDKit          3D

 16 18  0  0  0  0  0  0  0  0999 V2000
   -3.2849    1.4294   -0.2856 C   0  0  0  0  0  0  0  0  0  0  0  0
   -2.0598    1.9956   -0.6394 C   0  0  0  0  0  0  0  0  0  0  0  0
   -0.8785    1.2615   -0.5052 C   0  0  0  0  0  0  0  0  0  0  0  0
   -0.9086   -0.0551    0.0013 C   0  0  0  0  0  0  0  0  0  0  0  0
   -2.1621   -0.6322    0.3309 C   0  0  0  0  0  0  0  0  0  0  0  0
   -3.3396    0.1194    0.1930 C   0  0  0  0  0  0  0  0  0  0  0  0
   -2.2215   -1.9568    0.7788 C   0  0  0  0  0  0  0  0  0  0  0  0
   -1.0472   -2.6972    0.8869 C   0  0  0  0  0  0  0  0  0  0  0  0
    0.1479   -2.1304    0.5826 N   0  0  0  0  0  0  0  0  0  0  0  0
    0.2618   -0.8407    0.1611 C   0  0  0  0  0  0  0  0  0  0  0  0
    1.6211   -0.3210   -0.0986 C   0  0  0  0  0  0  0  0  0  0  0  0
    2.1112    0.7998    0.5890 C   0  0  0  0  0  0  0  0  0  0  0  0
    3.4119    1.2487    0.3544 C   0  0  0  0  0  0  0  0  0  0  0  0
    4.2187    0.5619   -0.5547 C   0  0  0  0  0  0  0  0  0  0  0  0
    3.7388   -0.5362   -1.1967 N   0  0  0  0  0  0  0  0  0  0  0  0
    2.4749   -0.9922   -0.9862 C   0  0  0  0  0  0  0  0  0  0  0  0
  1  2  2  0
  2  3  1  0
  3  4  2  0
  4  5  1  0
  5  6  2  0
  5  7  1  0
  7  8  2  0
  8  9  1  0
  9 10  2  0
 10 11  1  0
 11 12  2  0
 12 13  1  0
 13 14  2  0
 14 15  1  0
 15 16  2  0
  6  1  1  0
 10  4  1  0
 16 11  1  0
M  END
>  <LigandName>  (94) 
phen

>  <SMILES>  (94) 
c1ccc2c(c1)ccnc2c3cccnc3

>  <FieldStrength>  (94) 
strong

>  <MolecularWeight>  (94) 
206.25

>  <HDonors>  (94) 
0

>  <HAcceptors>  (94) 
2

>  <LogP>  (94) 
3.3

>  <NumAtoms>  (94) 
26

>  <NetFormalCharge>  (94) 
0

$$$$
PO4
     RDKit          3D

  5  4  0  0  0  0  0  0  0  0999 V2000
    0.0000    0.0000    0.0000 P   0  0  0  0  0  0  0  0  0  0  0  0
    0.0000   -1.2880   -0.9110 O   0  0  0  0  0  0  0  0  0  0  0  0
    0.0000    1.2880   -0.9110 O   0  0  0  0  0  0  0  0  0  0  0  0
   -1.2880    0.0000    0.9110 O   0  0  0  0  0  0  0  0  0  0  0  0
    1.2880    0.0000    0.9110 O   0  0  0  0  0  0  0  0  0  0  0  0
  1  2  2  0
  1  3  1  0
  1  4  1  0
  1  5  1  0
M  CHG  3   3  -1   4  -1   5  -1
M  END
>  <NetFormalCharge>  (95) 
-3

$$$$

     RDKit          3D

 19 21  0  0  0  0  0  0  0  0999 V2000
    0.0827   -0.0712   -1.3905 P   0  0  0  0  0  0  0  0  0  0  0  0
   -0.9082    1.3696   -0.7808 C   0  0  0  0  0  0  0  0  0  0  0  0
   -0.2989    2.5021   -0.2012 C   0  0  0  0  0  0  0  0  0  0  0  0
   -1.0791    3.5928    0.1876 C   0  0  0  0  0  0  0  0  0  0  0  0
   -2.4604    3.5776   -0.0044 C   0  0  0  0  0  0  0  0  0  0  0  0
   -3.0702    2.4714   -0.6063 C   0  0  0  0  0  0  0  0  0  0  0  0
   -2.2991    1.3670   -0.9964 C   0  0  0  0  0  0  0  0  0  0  0  0
   -0.6597   -1.5407   -0.5373 C   0  0  0  0  0  0  0  0  0  0  0  0
   -1.4688   -1.4204    0.6071 C   0  0  0  0  0  0  0  0  0  0  0  0
   -2.0248   -2.5671    1.1931 C   0  0  0  0  0  0  0  0  0  0  0  0
   -1.7575   -3.8296    0.6575 C   0  0  0  0  0  0  0  0  0  0  0  0
   -0.9553   -3.9502   -0.4725 C   0  0  0  0  0  0  0  0  0  0  0  0
   -0.4017   -2.8132   -1.0666 C   0  0  0  0  0  0  0  0  0  0  0  0
    1.6724    0.0604   -0.4626 C   0  0  0  0  0  0  0  0  0  0  0  0
    1.7282   -0.0073    0.9373 C   0  0  0  0  0  0  0  0  0  0  0  0
    2.9553    0.1092    1.5993 C   0  0  0  0  0  0  0  0  0  0  0  0
    4.1301    0.3158    0.8633 C   0  0  0  0  0  0  0  0  0  0  0  0
    4.0787    0.4033   -0.5305 C   0  0  0  0  0  0  0  0  0  0  0  0
    2.8494    0.2805   -1.1899 C   0  0  0  0  0  0  0  0  0  0  0  0
  1  2  1  0
  2  3  2  0
  3  4  1  0
  4  5  2  0
  5  6  1  0
  6  7  2  0
  1  8  1  0
  8  9  2  0
  9 10  1  0
 10 11  2  0
 11 12  1  0
 12 13  2  0
  1 14  1  0
 14 15  2  0
 15 16  1  0
 16 17  2  0
 17 18  1  0
 18 19  2  0
  7  2  1  0
 13  8  1  0
 19 14  1  0
M  END
>  <LigandName>  (96) 
PPh₃

>  <SMILES>  (96) 
P(c1ccccc1)(c2ccccc2)(c3ccccc3)

>  <FieldStrength>  (96) 
strong

>  <MolecularWeight>  (96) 
262.29

>  <HDonors>  (96) 
0

>  <HAcceptors>  (96) 
0

>  <LogP>  (96) 
3.44

>  <NumAtoms>  (96) 
34

>  <NetFormalCharge>  (96) 
0

$$$$

     RDKit          3D

  6  6  0  0  0  0  0  0  0  0999 V2000
   -0.0878    1.1713    0.0042 C   0  0  0  0  0  0  0  0  0  0  0  0
   -1.2376    0.3822    0.0831 C   0  0  0  0  0  0  0  0  0  0  0  0
   -1.1126   -1.0097    0.0767 C   0  0  0  0  0  0  0  0  0  0  0  0
    0.1186   -1.5827   -0.0057 N   0  0  0  0  0  0  0  0  0  0  0  0
    1.2506   -0.8320   -0.0834 C   0  0  0  0  0  0  0  0  0  0  0  0
    1.1668    0.5631   -0.0797 C   0  0  0  0  0  0  0  0  0  0  0  0
  1  2  2  0
  2  3  1  0
  3  4  2  0
  4  5  1  0
  5  6  2  0
  6  1  1  0
M  END
>  <LigandName>  (97) 
py

>  <SMILES>  (97) 
c1ccncc1

>  <FieldStrength>  (97) 
moderate

>  <MolecularWeight>  (97) 
79.1

>  <HDonors>  (97) 
0

>  <HAcceptors>  (97) 
1

>  <LogP>  (97) 
1.08

>  <NumAtoms>  (97) 
11

>  <NetFormalCharge>  (97) 
0

$$$$

     RDKit          3D

  5  5  0  0  0  0  0  0  0  0999 V2000
   -1.0923    0.3798   -0.0384 C   0  0  0  0  0  0  0  0  0  0  0  0
    0.1684    1.0150   -0.5667 C   0  0  0  0  0  0  0  0  0  0  0  0
    1.2931    0.1540   -0.0120 C   0  0  0  0  0  0  0  0  0  0  0  0
    0.7255   -1.1229    0.4332 N   0  0  0  0  0  0  0  0  0  0  0  0
   -0.7115   -1.0718    0.1648 C   0  0  0  0  0  0  0  0  0  0  0  0
  1  2  1  0
  2  3  1  0
  3  4  1  0
  4  5  1  0
  5  1  1  0
M  END
>  <LigandName>  (98) 
Pyrrolidine

>  <SMILES>  (98) 
C1CCNC1

>  <FieldStrength>  (98) 
strong

>  <MolecularWeight>  (98) 
71.12

>  <HDonors>  (98) 
1

>  <HAcceptors>  (98) 
1

>  <LogP>  (98) 
0.37

>  <NumAtoms>  (98) 
14

>  <NetFormalCharge>  (98) 
0

$$$$

     RDKit          3D

  1  0  0  0  0  0  0  0  0  0999 V2000
    4.0000    0.0000    0.0000 S   0  0  0  0  0  0  0  0  0  0  0  0
M  CHG  1   1  -2
M  END
>  <LigandName>  (99) 
S²⁻

>  <SMILES>  (99) 
[S-2]

>  <FieldStrength>  (99) 
very weak

>  <MolecularWeight>  (99) 
32.07

>  <HDonors>  (99) 
0

>  <HAcceptors>  (99) 
0

>  <LogP>  (99) 
-0.0

>  <NumAtoms>  (99) 
1

>  <NetFormalCharge>  (99) 
-2

$$$$
SAH
     RDKit          3D

 26 28  0  0  1  0  0  0  0  0999 V2000
    0.6630    0.7420    6.8430 N   0  0  0  0  0  0  0  0  0  0  0  0
   -0.6680    0.5580    6.2510 C   0  0  1  0  0  0  0  0  0  0  0  0
   -0.5530   -0.3150    5.0000 C   0  0  0  0  0  0  0  0  0  0  0  0
    0.3650    0.3650    3.9850 C   0  0  0  0  0  0  0  0  0  0  0  0
    0.5010   -0.6690    2.5010 S   0  0  0  0  0  0  0  0  0  0  0  0
   -1.5730   -0.1120    7.2510 C   0  0  0  0  0  0  0  0  0  0  0  0
   -1.1120   -0.8720    8.0700 O   0  0  0  0  0  0  0  0  0  0  0  0
   -2.8930    0.1320    7.2320 O   0  0  0  0  0  0  0  0  0  0  0  0
    1.6160    0.3540    1.5030 C   0  0  0  0  0  0  0  0  0  0  0  0
    1.8830   -0.3370    0.1640 C   0  0  1  0  0  0  0  0  0  0  0  0
    0.6520   -0.4860   -0.5610 O   0  0  0  0  0  0  0  0  0  0  0  0
    2.8240    0.5290   -0.6940 C   0  0  1  0  0  0  0  0  0  0  0  0
    4.0260   -0.1790   -1.0010 O   0  0  0  0  0  0  0  0  0  0  0  0
    2.0090    0.8000   -1.9860 C   0  0  1  0  0  0  0  0  0  0  0  0
    2.8440    0.7100   -3.1430 O   0  0  0  0  0  0  0  0  0  0  0  0
    0.9700   -0.3490   -1.9630 C   0  0  2  0  0  0  0  0  0  0  0  0
   -0.2230    0.0140   -2.7300 N   0  0  0  0  0  0  0  0  0  0  0  0
   -1.2970    0.7150   -2.2670 C   0  0  0  0  0  0  0  0  0  0  0  0
   -2.1760    0.8590   -3.2150 N   0  0  0  0  0  0  0  0  0  0  0  0
   -1.7240    0.2610   -4.3440 C   0  0  0  0  0  0  0  0  0  0  0  0
   -2.2280    0.0980   -5.6450 C   0  0  0  0  0  0  0  0  0  0  0  0
   -3.4620    0.6170   -5.9970 N   0  0  0  0  0  0  0  0  0  0  0  0
   -1.4930   -0.5660   -6.5310 N   0  0  0  0  0  0  0  0  0  0  0  0
   -0.3140   -1.0650   -6.2040 C   0  0  0  0  0  0  0  0  0  0  0  0
    0.1960   -0.9360   -4.9980 N   0  0  0  0  0  0  0  0  0  0  0  0
   -0.4630   -0.2830   -4.0480 C   0  0  0  0  0  0  0  0  0  0  0  0
  2  1  1  1
  2  3  1  0
  2  6  1  0
  3  4  1  0
  4  5  1  0
  5  9  1  0
  6  7  2  0
  6  8  1  0
 10  9  1  1
 10 11  1  0
 10 12  1  0
 11 16  1  0
 12 13  1  6
 12 14  1  0
 14 15  1  6
 14 16  1  0
 16 17  1  6
 17 18  1  0
 17 26  1  0
 18 19  2  0
 19 20  1  0
 20 21  2  0
 20 26  1  0
 21 22  1  0
 21 23  1  0
 23 24  2  0
 24 25  1  0
 25 26  2  0
M  END
>  <NetFormalCharge>  (100) 
0

$$$$
SAM
     RDKit          3D

 27 29  0  0  1  0  0  0  0  0999 V2000
   -6.8150   -0.4360    0.9390 N   0  0  0  0  0  0  0  0  0  0  0  0
   -6.1770    0.8580    0.6610 C   0  0  2  0  0  0  0  0  0  0  0  0
   -7.1640    1.7670   -0.0260 C   0  0  0  0  0  0  0  0  0  0  0  0
   -8.0350    1.2950   -0.7370 O   0  0  0  0  0  0  0  0  0  0  0  0
   -7.0910    2.9740    0.1300 O   0  0  0  0  0  0  0  0  0  0  0  0
   -4.9640    0.6440   -0.2460 C   0  0  0  0  0  0  0  0  0  0  0  0
   -3.9080   -0.1760    0.4990 C   0  0  0  0  0  0  0  0  0  0  0  0
   -2.4690   -0.4290   -0.5760 S   0  0  0  0  0  0  0  0  0  0  0  0
   -3.1030   -1.7510   -1.6440 C   0  0  0  0  0  0  0  0  0  0  0  0
   -1.4130   -1.4000    0.5340 C   0  0  0  0  0  0  0  0  0  0  0  0
   -0.1030   -1.7410   -0.1770 C   0  0  1  0  0  0  0  0  0  0  0  0
    0.6560   -0.5420   -0.4070 O   0  0  0  0  0  0  0  0  0  0  0  0
    0.7520   -2.6640    0.7130 C   0  0  1  0  0  0  0  0  0  0  0  0
    1.0040   -3.9090    0.0580 O   0  0  0  0  0  0  0  0  0  0  0  0
    2.0750   -1.8770    0.9100 C   0  0  1  0  0  0  0  0  0  0  0  0
    3.2030   -2.7510    0.8320 O   0  0  0  0  0  0  0  0  0  0  0  0
    2.0500   -0.8960   -0.2900 C   0  0  2  0  0  0  0  0  0  0  0  0
    2.8620    0.2900   -0.0060 N   0  0  0  0  0  0  0  0  0  0  0  0
    2.4260    1.4480    0.5670 C   0  0  0  0  0  0  0  0  0  0  0  0
    3.4110    2.2920    0.6700 N   0  0  0  0  0  0  0  0  0  0  0  0
    4.5390    1.7310    0.1720 C   0  0  0  0  0  0  0  0  0  0  0  0
    5.8700    2.1550    0.0220 C   0  0  0  0  0  0  0  0  0  0  0  0
    6.2630    3.4150    0.4380 N   0  0  0  0  0  0  0  0  0  0  0  0
    6.7440    1.3170   -0.5270 N   0  0  0  0  0  0  0  0  0  0  0  0
    6.3780    0.1120   -0.9250 C   0  0  0  0  0  0  0  0  0  0  0  0
    5.1430   -0.3270   -0.8050 N   0  0  0  0  0  0  0  0  0  0  0  0
    4.2010    0.4380   -0.2630 C   0  0  0  0  0  0  0  0  0  0  0  0
  2  1  1  6
  2  3  1  0
  2  6  1  0
  3  4  2  0
  3  5  1  0
  6  7  1  0
  8  7  1  0
  8  9  1  6
  8 10  1  0
 11 10  1  1
 11 12  1  0
 11 13  1  0
 12 17  1  0
 13 14  1  6
 13 15  1  0
 15 16  1  6
 15 17  1  0
 17 18  1  1
 18 19  1  0
 18 27  1  0
 19 20  2  0
 20 21  1  0
 21 22  2  0
 21 27  1  0
 22 23  1  0
 22 24  1  0
 24 25  2  0
 25 26  1  0
 26 27  2  0
M  CHG  2   5  -1   8   1
M  END
>  <NetFormalCharge>  (101) 
0

$$$$

     RDKit          3D

  3  2  0  0  0  0  0  0  0  0999 V2000
    1.8946   -0.1523   -0.3849 S   0  0  0  0  0  0  0  0  0  0  0  0
    0.3895    0.1509    0.1040 C   0  0  0  0  0  0  0  0  0  0  0  0
   -0.7964    0.3898    0.4892 N   0  0  0  0  0  0  0  0  0  0  0  0
  1  2  2  0
  2  3  2  0
M  END
>  <LigandName>  (102) 
SCN⁻ (S-bound)

>  <SMILES>  (102) 
S=C=N

>  <FieldStrength>  (102) 
weak

>  <MolecularWeight>  (102) 
59.09

>  <HDonors>  (102) 
1

>  <HAcceptors>  (102) 
2

>  <LogP>  (102) 
0.67

>  <NumAtoms>  (102) 
4

>  <NetFormalCharge>  (102) 
0

$$$$

     RDKit          3D

  3  2  0  0  0  0  0  0  0  0999 V2000
    1.8946   -0.1523   -0.3849 S   0  0  0  0  0  0  0  0  0  0  0  0
    0.3895    0.1509    0.1040 C   0  0  0  0  0  0  0  0  0  0  0  0
   -0.7964    0.3898    0.4892 N   0  0  0  0  0  0  0  0  0  0  0  0
  1  2  2  0
  2  3  2  0
M  END
>  <LigandName>  (103) 
SCN⁻ (S-bound)

>  <SMILES>  (103) 
S=C=N

>  <FieldStrength>  (103) 
weak

>  <MolecularWeight>  (103) 
59.09

>  <HDonors>  (103) 
1

>  <HAcceptors>  (103) 
2

>  <LogP>  (103) 
0.67

>  <NumAtoms>  (103) 
4

>  <NetFormalCharge>  (103) 
0

$$$$
SIA
     RDKit          3D

 21 21  0  0  1  0  0  0  0  0999 V2000
   -2.5020   -0.8320    0.1740 C   0  0  0  0  0  0  0  0  0  0  0  0
   -2.1710    0.6280    0.3420 C   0  0  2  0  0  0  0  0  0  0  0  0
   -1.7890    0.8980    1.8000 C   0  0  0  0  0  0  0  0  0  0  0  0
   -0.5860    0.0230    2.1710 C   0  0  1  0  0  0  0  0  0  0  0  0
    0.5290    0.2640    1.1480 C   0  0  2  0  0  0  0  0  0  0  0  0
   -0.0260    0.0430   -0.2590 C   0  0  2  0  0  0  0  0  0  0  0  0
    1.0880    0.2510   -1.2860 C   0  0  1  0  0  0  0  0  0  0  0  0
    0.5350    0.0210   -2.6940 C   0  0  1  0  0  0  0  0  0  0  0  0
    1.6500    0.2290   -3.7210 C   0  0  0  0  0  0  0  0  0  0  0  0
    2.6320   -0.3290    2.2260 C   0  0  0  0  0  0  0  0  0  0  0  0
    3.7630   -1.2920    2.4780 C   0  0  0  0  0  0  0  0  0  0  0  0
    1.6290   -0.6710    1.3940 N   0  0  0  0  0  0  0  0  0  0  0  0
   -2.1910   -1.4080   -0.8410 O   0  0  0  0  0  0  0  0  0  0  0  0
   -3.1410   -1.4930    1.1520 O   0  0  0  0  0  0  0  0  0  0  0  0
   -3.3120    1.4160   -0.0030 O   0  0  0  0  0  0  0  0  0  0  0  0
   -0.1230    0.3700    3.4780 O   0  0  0  0  0  0  0  0  0  0  0  0
   -1.0820    0.9680   -0.5130 O   0  0  0  0  0  0  0  0  0  0  0  0
    1.5880    1.5860   -1.1830 O   0  0  0  0  0  0  0  0  0  0  0  0
    0.0350   -1.3130   -2.7970 O   0  0  0  0  0  0  0  0  0  0  0  0
    1.1330    0.0140   -5.0350 O   0  0  0  0  0  0  0  0  0  0  0  0
    2.6240    0.7530    2.7720 O   0  0  0  0  0  0  0  0  0  0  0  0
  1  2  1  0
  1 13  2  0
  1 14  1  0
  2  3  1  0
  2 15  1  6
  2 17  1  0
  3  4  1  0
  4  5  1  0
  4 16  1  1
  5  6  1  0
  5 12  1  1
  6  7  1  0
  6 17  1  6
  7  8  1  0
  7 18  1  6
  8  9  1  0
  8 19  1  1
  9 20  1  0
 10 11  1  0
 10 12  1  0
 10 21  2  0
M  END
>  <NetFormalCharge>  (104) 
0

$$$$
SO4
     RDKit          3D

  5  4  0  0  0  0  0  0  0  0999 V2000
    0.0000    0.0000    0.0000 S   0  0  0  0  0  0  0  0  0  0  0  0
    0.0000   -1.2010   -0.8500 O   0  0  0  0  0  0  0  0  0  0  0  0
    0.0000    1.2010   -0.8500 O   0  0  0  0  0  0  0  0  0  0  0  0
   -1.2010    0.0000    0.8500 O   0  0  0  0  0  0  0  0  0  0  0  0
    1.2010    0.0000    0.8500 O   0  0  0  0  0  0  0  0  0  0  0  0
  1  2  2  0
  1  3  2  0
  1  4  1  0
  1  5  1  0
M  CHG  2   4  -1   5  -1
M  END
>  <NetFormalCharge>  (105) 
-2

$$$$
SR
     RDKit          2D

  1  0  0  0  0  0  0  0  0  0999 V2000
    0.0000    0.0000    0.0000 Sr  0  0  0  0  0 15  0  0  0  0  0  0
M  CHG  1   1   2
M  END
>  <NetFormalCharge>  (106) 
2

$$$$

     RDKit          3D

  5  5  0  0  0  0  0  0  0  0999 V2000
    0.5236    0.8381   -0.3882 C   0  0  0  0  0  0  0  0  0  0  0  0
   -0.8019    0.6393    0.2748 C   0  0  0  0  0  0  0  0  0  0  0  0
   -0.9813   -0.8638    0.2307 C   0  0  0  0  0  0  0  0  0  0  0  0
    0.2795   -1.4835    0.1138 O   0  0  0  0  0  0  0  0  0  0  0  0
    1.2333   -0.4742   -0.1281 C   0  0  0  0  0  0  0  0  0  0  0  0
  1  2  1  0
  2  3  1  0
  3  4  1  0
  4  5  1  0
  5  1  1  0
M  END
>  <LigandName>  (107) 
THF

>  <SMILES>  (107) 
C1CCOC1

>  <FieldStrength>  (107) 
moderate

>  <MolecularWeight>  (107) 
72.11

>  <HDonors>  (107) 
0

>  <HAcceptors>  (107) 
1

>  <LogP>  (107) 
0.8

>  <NumAtoms>  (107) 
13

>  <NetFormalCharge>  (107) 
0

$$$$
TRS
     RDKit          3D

  8  7  0  0  0  0  0  0  0  0999 V2000
    0.0130   -0.2960    0.0140 C   0  0  0  0  0  0  0  0  0  0  0  0
   -0.0420    0.9860    0.8480 C   0  0  0  0  0  0  0  0  0  0  0  0
    1.2630   -0.2760   -0.8690 C   0  0  0  0  0  0  0  0  0  0  0  0
   -1.2330   -0.3840   -0.8690 C   0  0  0  0  0  0  0  0  0  0  0  0
    0.0640   -1.4600    0.9080 N   0  0  0  0  0  0  0  0  0  0  0  0
   -0.0910    2.1180   -0.0220 O   0  0  0  0  0  0  0  0  0  0  0  0
    2.4290   -0.3110   -0.0440 O   0  0  0  0  0  0  0  0  0  0  0  0
   -2.4000   -0.4030   -0.0440 O   0  0  0  0  0  0  0  0  0  0  0  0
  1  2  1  0
  1  3  1  0
  1  4  1  0
  1  5  1  0
  2  6  1  0
  3  7  1  0
  4  8  1  0
M  CHG  1   5   1
M  END
>  <NetFormalCharge>  (108) 
1

$$$$
ZN
     RDKit          2D

  1  0  0  0  0  0  0  0  0  0999 V2000
    0.0000    0.0000    0.0000 Zn  0  0  0  0  0 15  0  0  0  0  0  0
M  CHG  1   1   2
M  END
>  <NetFormalCharge>  (109) 
2

$$$$
