ACE
     RDKit          3D

  3  2  0  0  0  0  0  0  0  0999 V2000
   -0.1330    0.4530    0.0000 C   0  0  0  0  0  0  0  0  0  0  0  0
   -1.1130   -0.2520    0.0000 O   0  0  0  0  0  0  0  0  0  0  0  0
    1.2410   -0.1670    0.0000 C   0  0  0  0  0  0  0  0  0  0  0  0
  1  2  2  0
  1  3  1  0
M  END
>  <LigandName>  (1) 
ACE

>  <Denticity>  (1) 
1

>  <DenticityDescription>  (1) 
monodentate

>  <Delta_cm-1>  (1) 
20000

>  <DeltaConfidence>  (1) 
default

>  <SMILES>  (1) 
[H]C(=O)C([H])([H])[H]

>  <NetFormalCharge>  (1) 
0

$$$$

     RDKit          3D

  4  3  0  0  0  0  0  0  0  0999 V2000
   -0.6645   -0.0502   -0.0382 C   0  0  0  0  0  0  0  0  0  0  0  0
    0.8168    0.1015    0.0391 C   0  0  0  0  0  0  0  0  0  0  0  0
    1.3228    1.2111    0.3513 O   0  0  0  0  0  0  0  0  0  0  0  0
    1.6412   -0.9946   -0.1802 O   0  0  0  0  0  1  0  0  0  0  0  0
  1  2  1  0
  2  3  2  0
  2  4  1  0
M  CHG  1   4  -1
M  END
>  <LigandName>  (2) 
Acetate

>  <SMILES>  (2) 
CC(=O)[O-]

>  <FieldStrength>  (2) 
moderate

>  <Delta_cm-1>  (2) 
20000

>  <DonorAtom>  (2) 
O,O

>  <Denticity>  (2) 
2

>  <DenticityDescription>  (2) 
bidentate

>  <MolecularWeight>  (2) 
59.04

>  <HDonors>  (2) 
0

>  <HAcceptors>  (2) 
2

>  <LogP>  (2) 
-1.24

>  <NumAtoms>  (2) 
7

>  <NetFormalCharge>  (2) 
-1

$$$$
ACT
     RDKit          3D

  4  3  0  0  0  0  0  0  0  0999 V2000
   -0.0720    0.0000    0.0000 C   0  0  0  0  0  0  0  0  0  0  0  0
   -0.6820    1.0560    0.0000 O   0  0  0  0  0  0  0  0  0  0  0  0
   -0.6820   -1.0560    0.0000 O   0  0  0  0  0  0  0  0  0  0  0  0
    1.4350    0.0000    0.0000 C   0  0  0  0  0  0  0  0  0  0  0  0
  1  2  2  0
  1  3  1  0
  1  4  1  0
M  CHG  1   3  -1
M  END
>  <LigandName>  (3) 
ACT

>  <Denticity>  (3) 
1

>  <DenticityDescription>  (3) 
monodentate

>  <Delta_cm-1>  (3) 
20000

>  <DeltaConfidence>  (3) 
estimated

>  <SMILES>  (3) 
[H]C([H])([H])C(=O)[O-]

>  <NetFormalCharge>  (3) 
-1

$$$$

     RDKit          3D

  7  7  0  0  0  0  0  0  0  0999 V2000
    0.2211   -1.1132    0.4681 C   0  0  0  0  0  0  0  0  0  0  0  0
   -1.1765   -1.1238    0.5211 C   0  0  0  0  0  0  0  0  0  0  0  0
   -1.9028   -0.0165    0.0730 C   0  0  0  0  0  0  0  0  0  0  0  0
   -1.2323    1.1030   -0.4287 C   0  0  0  0  0  0  0  0  0  0  0  0
    0.1653    1.1166   -0.4830 C   0  0  0  0  0  0  0  0  0  0  0  0
    0.8991    0.0078   -0.0345 C   0  0  0  0  0  0  0  0  0  0  0  0
    2.3280    0.0202   -0.0893 N   0  0  0  0  0  0  0  0  0  0  0  0
  1  2  2  0
  2  3  1  0
  3  4  2  0
  4  5  1  0
  5  6  2  0
  6  7  1  0
  6  1  1  0
M  END
>  <LigandName>  (4) 
Aniline

>  <SMILES>  (4) 
c1ccccc1[NH2]

>  <FieldStrength>  (4) 
moderate

>  <Delta_cm-1>  (4) 
21000

>  <DonorAtom>  (4) 
N

>  <Denticity>  (4) 
1

>  <DenticityDescription>  (4) 
monodentate

>  <MolecularWeight>  (4) 
93.13

>  <HDonors>  (4) 
1

>  <HAcceptors>  (4) 
1

>  <LogP>  (4) 
1.27

>  <NumAtoms>  (4) 
14

>  <NetFormalCharge>  (4) 
0

$$$$

     RDKit          3D

 12 13  0  0  0  0  0  0  0  0999 V2000
   -2.7299    0.9741   -1.0048 C   0  0  0  0  0  0  0  0  0  0  0  0
   -2.9081    2.0195   -0.1003 C   0  0  0  0  0  0  0  0  0  0  0  0
   -1.9231    2.2673    0.8544 C   0  0  0  0  0  0  0  0  0  0  0  0
   -0.8059    1.4940    0.8953 N   0  0  0  0  0  0  0  0  0  0  0  0
   -0.5951    0.4623    0.0279 C   0  0  0  0  0  0  0  0  0  0  0  0
   -1.5757    0.1892   -0.9486 C   0  0  0  0  0  0  0  0  0  0  0  0
    0.6633   -0.3203    0.1615 C   0  0  0  0  0  0  0  0  0  0  0  0
    0.9910   -1.4069   -0.6760 C   0  0  0  0  0  0  0  0  0  0  0  0
    2.1949   -2.0884   -0.4818 C   0  0  0  0  0  0  0  0  0  0  0  0
    3.0642   -1.6944    0.5340 C   0  0  0  0  0  0  0  0  0  0  0  0
    2.7154   -0.6172    1.3470 C   0  0  0  0  0  0  0  0  0  0  0  0
    1.5401    0.0350    1.1445 N   0  0  0  0  0  0  0  0  0  0  0  0
  1  2  2  0
  2  3  1  0
  3  4  2  0
  4  5  1  0
  5  6  2  0
  5  7  1  0
  7  8  2  0
  8  9  1  0
  9 10  2  0
 10 11  1  0
 11 12  2  0
  6  1  1  0
 12  7  1  0
M  END
>  <LigandName>  (5) 
bipy

>  <SMILES>  (5) 
c1ccnc(c1)c2ccccn2

>  <FieldStrength>  (5) 
strong

>  <Delta_cm-1>  (5) 
26000

>  <DonorAtom>  (5) 
N,N

>  <Denticity>  (5) 
2

>  <DenticityDescription>  (5) 
bidentate

>  <MolecularWeight>  (5) 
156.19

>  <HDonors>  (5) 
0

>  <HAcceptors>  (5) 
2

>  <LogP>  (5) 
2.14

>  <NumAtoms>  (5) 
20

>  <NetFormalCharge>  (5) 
0

$$$$

     RDKit          3D

  1  0  0  0  0  0  0  0  0  0999 V2000
    4.0000    0.0000    0.0000 Br  0  0  0  0  0 15  0  0  0  0  0  0
M  CHG  1   1  -1
M  END
>  <LigandName>  (6) 
Br⁻

>  <SMILES>  (6) 
[Br-]

>  <FieldStrength>  (6) 
very weak

>  <Delta_cm-1>  (6) 
12000

>  <DonorAtom>  (6) 
Br

>  <Denticity>  (6) 
1

>  <DenticityDescription>  (6) 
monodentate

>  <MolecularWeight>  (6) 
79.9

>  <HDonors>  (6) 
0

>  <HAcceptors>  (6) 
0

>  <LogP>  (6) 
-3.0

>  <NumAtoms>  (6) 
1

>  <NetFormalCharge>  (6) 
-1

$$$$

     RDKit          3D

  6  5  0  0  0  0  0  0  0  0999 V2000
   -1.2123   -1.2556    0.0394 O   0  0  0  0  0  0  0  0  0  0  0  0
   -0.7263   -0.0947    0.0104 C   0  0  0  0  0  0  0  0  0  0  0  0
   -1.5750    1.0052   -0.0016 O   0  0  0  0  0  1  0  0  0  0  0  0
    0.7263    0.0947   -0.0104 C   0  0  0  0  0  0  0  0  0  0  0  0
    1.2123    1.2556   -0.0394 O   0  0  0  0  0  0  0  0  0  0  0  0
    1.5750   -1.0052    0.0016 O   0  0  0  0  0  1  0  0  0  0  0  0
  1  2  2  0
  2  3  1  0
  2  4  1  0
  4  5  2  0
  4  6  1  0
M  CHG  2   3  -1   6  -1
M  END
>  <LigandName>  (7) 
C₂O₄²⁻

>  <SMILES>  (7) 
O=C([O-])C(=O)[O-]

>  <FieldStrength>  (7) 
moderate

>  <Delta_cm-1>  (7) 
20000

>  <DonorAtom>  (7) 
O,O

>  <Denticity>  (7) 
2

>  <DenticityDescription>  (7) 
bidentate

>  <MolecularWeight>  (7) 
88.02

>  <HDonors>  (7) 
0

>  <HAcceptors>  (7) 
4

>  <LogP>  (7) 
-3.51

>  <NumAtoms>  (7) 
6

>  <NetFormalCharge>  (7) 
-2

$$$$

     RDKit          3D

  1  0  0  0  0  0  0  0  0  0999 V2000
    0.0003    0.0011    0.2774 C   0  0  0  0  0  3  0  0  0  0  0  0
M  CHG  1   1  -1
M  END
>  <LigandName>  (8) 
CH₃⁻

>  <SMILES>  (8) 
[CH3-]

>  <FieldStrength>  (8) 
very strong

>  <Delta_cm-1>  (8) 
31000

>  <DonorAtom>  (8) 
C

>  <Denticity>  (8) 
1

>  <DenticityDescription>  (8) 
monodentate

>  <MolecularWeight>  (8) 
15.03

>  <HDonors>  (8) 
0

>  <HAcceptors>  (8) 
0

>  <LogP>  (8) 
0.45

>  <NumAtoms>  (8) 
4

>  <NetFormalCharge>  (8) 
-1

$$$$

     RDKit          3D

  1  0  0  0  0  0  0  0  0  0999 V2000
    4.0000    0.0000    0.0000 Cl  0  0  0  0  0 15  0  0  0  0  0  0
M  CHG  1   1  -1
M  END
>  <LigandName>  (9) 
Cl⁻

>  <SMILES>  (9) 
[Cl-]

>  <FieldStrength>  (9) 
weak

>  <Delta_cm-1>  (9) 
15000

>  <DonorAtom>  (9) 
Cl

>  <Denticity>  (9) 
1

>  <DenticityDescription>  (9) 
monodentate

>  <MolecularWeight>  (9) 
35.45

>  <HDonors>  (9) 
0

>  <HAcceptors>  (9) 
0

>  <LogP>  (9) 
-3.0

>  <NumAtoms>  (9) 
1

>  <NetFormalCharge>  (9) 
-1

$$$$

     RDKit          3D

  2  1  0  0  0  0  0  0  0  0999 V2000
    0.5786    0.0000    0.0000 C   0  0  0  0  0  3  0  0  0  0  0  0
   -0.5786    0.0000    0.0000 N   0  0  0  0  0  0  0  0  0  0  0  0
  1  2  3  0
M  CHG  1   1  -1
M  END
>  <LigandName>  (10) 
CN⁻

>  <SMILES>  (10) 
[C-]#N

>  <FieldStrength>  (10) 
very strong

>  <Delta_cm-1>  (10) 
30000

>  <DonorAtom>  (10) 
C

>  <Denticity>  (10) 
1

>  <DenticityDescription>  (10) 
monodentate

>  <MolecularWeight>  (10) 
26.02

>  <HDonors>  (10) 
0

>  <HAcceptors>  (10) 
1

>  <LogP>  (10) 
0.1

>  <NumAtoms>  (10) 
2

>  <NetFormalCharge>  (10) 
-1

$$$$

     RDKit          3D

  2  1  0  0  0  0  0  0  0  0999 V2000
    0.5641    0.0000    0.0000 C   0  0  0  0  0  3  0  0  0  0  0  0
   -0.5641    0.0000    0.0000 O   0  0  0  0  0  3  0  0  0  0  0  0
  1  2  3  0
M  CHG  2   1  -1   2   1
M  END
>  <LigandName>  (11) 
CO

>  <SMILES>  (11) 
[C-]#[O+]

>  <FieldStrength>  (11) 
very strong

>  <Delta_cm-1>  (11) 
32000

>  <DonorAtom>  (11) 
C

>  <Denticity>  (11) 
1

>  <DenticityDescription>  (11) 
monodentate

>  <MolecularWeight>  (11) 
28.01

>  <HDonors>  (11) 
0

>  <HAcceptors>  (11) 
0

>  <LogP>  (11) 
-0.04

>  <NumAtoms>  (11) 
2

>  <NetFormalCharge>  (11) 
0

$$$$

     RDKit          3D

  5  4  0  0  0  0  0  0  0  0999 V2000
   -1.0318   -0.9253   -0.2411 C   0  0  0  0  0  0  0  0  0  0  0  0
    0.0969   -0.0369    0.0468 N   0  0  0  0  0  0  0  0  0  0  0  0
    0.0335    1.3927   -0.2582 C   0  0  0  0  0  0  0  0  0  0  0  0
    1.2940   -0.5616    0.6386 C   0  0  0  0  0  0  0  0  0  0  0  0
    1.3927   -1.7863    0.9180 O   0  0  0  0  0  0  0  0  0  0  0  0
  1  2  1  0
  2  3  1  0
  2  4  1  0
  4  5  2  0
M  END
>  <LigandName>  (12) 
DMF

>  <SMILES>  (12) 
CN(C)C=O

>  <FieldStrength>  (12) 
moderate-strong

>  <Delta_cm-1>  (12) 
22000

>  <DonorAtom>  (12) 
O

>  <Denticity>  (12) 
1

>  <DenticityDescription>  (12) 
monodentate

>  <MolecularWeight>  (12) 
73.09

>  <HDonors>  (12) 
0

>  <HAcceptors>  (12) 
1

>  <LogP>  (12) 
-0.3

>  <NumAtoms>  (12) 
12

>  <NetFormalCharge>  (12) 
0

$$$$

     RDKit          3D

  4  3  0  0  0  0  0  0  0  0999 V2000
   -1.4200   -0.1040    0.0402 C   0  0  0  0  0  0  0  0  0  0  0  0
    0.1461    0.5203    0.6757 S   0  0  0  0  0  0  0  0  0  0  0  0
    0.1774    1.9641    0.1928 O   0  0  0  0  0  0  0  0  0  0  0  0
    1.3889   -0.2933   -0.3440 C   0  0  0  0  0  0  0  0  0  0  0  0
  1  2  1  0
  2  3  2  0
  2  4  1  0
M  END
>  <LigandName>  (13) 
DMSO

>  <SMILES>  (13) 
CS(=O)C

>  <FieldStrength>  (13) 
moderate

>  <Delta_cm-1>  (13) 
21000

>  <DonorAtom>  (13) 
S

>  <Denticity>  (13) 
1

>  <DenticityDescription>  (13) 
monodentate

>  <MolecularWeight>  (13) 
78.14

>  <HDonors>  (13) 
0

>  <HAcceptors>  (13) 
1

>  <LogP>  (13) 
-0.01

>  <NumAtoms>  (13) 
10

>  <NetFormalCharge>  (13) 
0

$$$$
EDO
     RDKit          3D

  4  3  0  0  0  0  0  0  0  0999 V2000
   -0.6090   -0.2820    0.7100 C   0  0  0  0  0  0  0  0  0  0  0  0
    0.5570    0.1670    1.4020 O   0  0  0  0  0  0  0  0  0  0  0  0
   -0.6090    0.2820   -0.7100 C   0  0  0  0  0  0  0  0  0  0  0  0
    0.5570   -0.1670   -1.4020 O   0  0  0  0  0  0  0  0  0  0  0  0
  1  2  1  0
  1  3  1  0
  3  4  1  0
M  END
>  <LigandName>  (14) 
EDO

>  <Denticity>  (14) 
2

>  <DenticityDescription>  (14) 
bidentate

>  <Delta_cm-1>  (14) 
20000

>  <DeltaConfidence>  (14) 
estimated

>  <SMILES>  (14) 
[H]OC([H])([H])C([H])([H])O[H]

>  <NetFormalCharge>  (14) 
0

$$$$

     RDKit          3D

  4  3  0  0  0  0  0  0  0  0999 V2000
    1.3774    0.7652    0.1347 N   0  0  0  0  0  0  0  0  0  0  0  0
    0.7336   -0.5379   -0.0047 C   0  0  0  0  0  0  0  0  0  0  0  0
   -0.7810   -0.4173    0.1767 C   0  0  0  0  0  0  0  0  0  0  0  0
   -1.3667    0.3809   -0.8968 N   0  0  0  0  0  0  0  0  0  0  0  0
  1  2  1  0
  2  3  1  0
  3  4  1  0
M  END
>  <LigandName>  (15) 
en

>  <SMILES>  (15) 
[NH2]CC[NH2]

>  <FieldStrength>  (15) 
moderate-strong

>  <Delta_cm-1>  (15) 
25000

>  <DonorAtom>  (15) 
N,N

>  <Denticity>  (15) 
2

>  <DenticityDescription>  (15) 
bidentate

>  <MolecularWeight>  (15) 
60.1

>  <HDonors>  (15) 
2

>  <HAcceptors>  (15) 
2

>  <LogP>  (15) 
-1.1

>  <NumAtoms>  (15) 
12

>  <NetFormalCharge>  (15) 
0

$$$$

     RDKit          3D

  3  2  0  0  0  0  0  0  0  0999 V2000
    0.9270    0.0231   -0.0547 C   0  0  0  0  0  0  0  0  0  0  0  0
   -0.5372   -0.3937    0.0093 C   0  0  0  0  0  0  0  0  0  0  0  0
   -1.3604    0.6453   -0.4456 O   0  0  0  0  0  0  0  0  0  0  0  0
  1  2  1  0
  2  3  1  0
M  END
>  <LigandName>  (16) 
EtOH

>  <SMILES>  (16) 
CCO

>  <FieldStrength>  (16) 
moderate

>  <Delta_cm-1>  (16) 
20000

>  <DonorAtom>  (16) 
O

>  <Denticity>  (16) 
1

>  <DenticityDescription>  (16) 
monodentate

>  <MolecularWeight>  (16) 
46.07

>  <HDonors>  (16) 
1

>  <HAcceptors>  (16) 
1

>  <LogP>  (16) 
-0.0

>  <NumAtoms>  (16) 
9

>  <NetFormalCharge>  (16) 
0

$$$$

     RDKit          3D

  1  0  0  0  0  0  0  0  0  0999 V2000
    4.0000    0.0000    0.0000 F   0  0  0  0  0 15  0  0  0  0  0  0
M  CHG  1   1  -1
M  END
>  <LigandName>  (17) 
F⁻

>  <SMILES>  (17) 
[F-]

>  <FieldStrength>  (17) 
weak

>  <Delta_cm-1>  (17) 
18000

>  <DonorAtom>  (17) 
F

>  <Denticity>  (17) 
1

>  <DenticityDescription>  (17) 
monodentate

>  <MolecularWeight>  (17) 
19.0

>  <HDonors>  (17) 
0

>  <HAcceptors>  (17) 
0

>  <LogP>  (17) 
-3.0

>  <NumAtoms>  (17) 
1

>  <NetFormalCharge>  (17) 
-1

$$$$

     RDKit          3D

  3  2  0  0  0  0  0  0  0  0999 V2000
   -0.0406    0.0519   -0.0011 C   0  0  0  0  0  0  0  0  0  0  0  0
   -0.9001   -0.8174    0.2954 O   0  0  0  0  0  0  0  0  0  0  0  0
    1.2407   -0.3358   -0.3681 O   0  0  0  0  0  1  0  0  0  0  0  0
  1  2  2  0
  1  3  1  0
M  CHG  1   3  -1
M  END
>  <LigandName>  (18) 
Formate

>  <SMILES>  (18) 
C(=O)[O-]

>  <FieldStrength>  (18) 
moderate

>  <Delta_cm-1>  (18) 
20000

>  <DonorAtom>  (18) 
O

>  <Denticity>  (18) 
1

>  <DenticityDescription>  (18) 
monodentate

>  <MolecularWeight>  (18) 
45.02

>  <HDonors>  (18) 
0

>  <HAcceptors>  (18) 
2

>  <LogP>  (18) 
-1.63

>  <NumAtoms>  (18) 
4

>  <NetFormalCharge>  (18) 
-1

$$$$

     RDKit          3D

  1  0  0  0  0  0  0  0  0  0999 V2000
   -0.0035    0.4041    0.0000 O   0  0  0  0  0  0  0  0  0  0  0  0
M  END
>  <LigandName>  (19) 
H₂O

>  <SMILES>  (19) 
[OH2]

>  <FieldStrength>  (19) 
moderate

>  <Delta_cm-1>  (19) 
20000

>  <DonorAtom>  (19) 
O

>  <Denticity>  (19) 
1

>  <DenticityDescription>  (19) 
monodentate

>  <MolecularWeight>  (19) 
18.02

>  <HDonors>  (19) 
0

>  <HAcceptors>  (19) 
0

>  <LogP>  (19) 
-0.82

>  <NumAtoms>  (19) 
3

>  <NetFormalCharge>  (19) 
0

$$$$

     RDKit          3D

  1  0  0  0  0  0  0  0  0  0999 V2000
    4.0000    0.0000    0.0000 H   0  0  0  0  0 15  0  0  0  0  0  0
M  CHG  1   1  -1
M  END
>  <LigandName>  (20) 
H⁻

>  <SMILES>  (20) 
[H-]

>  <FieldStrength>  (20) 
very strong

>  <Delta_cm-1>  (20) 
31000

>  <DonorAtom>  (20) 
H

>  <Denticity>  (20) 
1

>  <DenticityDescription>  (20) 
monodentate

>  <MolecularWeight>  (20) 
1.01

>  <HDonors>  (20) 
0

>  <HAcceptors>  (20) 
0

>  <LogP>  (20) 
0.11

>  <NumAtoms>  (20) 
1

>  <NetFormalCharge>  (20) 
-1

$$$$

     RDKit          3D

  5  5  0  0  0  0  0  0  0  0999 V2000
    0.6588    0.6889   -0.2860 C   0  0  0  0  0  0  0  0  0  0  0  0
    1.0720   -0.5981   -0.0289 C   0  0  0  0  0  0  0  0  0  0  0  0
   -0.0023   -1.4094    0.0413 N   0  0  0  0  0  0  0  0  0  0  0  0
   -1.0511   -0.5887   -0.1768 C   0  0  0  0  0  0  0  0  0  0  0  0
   -0.6790    0.6885   -0.3781 N   0  0  0  0  0  0  0  0  0  0  0  0
  1  2  2  0
  2  3  1  0
  3  4  2  0
  4  5  1  0
  5  1  1  0
M  END
>  <LigandName>  (21) 
Imidazole

>  <SMILES>  (21) 
c1cnc[nH]1

>  <FieldStrength>  (21) 
moderate-strong

>  <Delta_cm-1>  (21) 
24000

>  <DonorAtom>  (21) 
N

>  <Denticity>  (21) 
1

>  <DenticityDescription>  (21) 
monodentate

>  <MolecularWeight>  (21) 
68.08

>  <HDonors>  (21) 
1

>  <HAcceptors>  (21) 
1

>  <LogP>  (21) 
0.41

>  <NumAtoms>  (21) 
9

>  <NetFormalCharge>  (21) 
0

$$$$

     RDKit          3D

  1  0  0  0  0  0  0  0  0  0999 V2000
    4.0000    0.0000    0.0000 I   0  0  0  0  0 15  0  0  0  0  0  0
M  CHG  1   1  -1
M  END
>  <LigandName>  (22) 
I⁻

>  <SMILES>  (22) 
[I-]

>  <FieldStrength>  (22) 
very weak

>  <Delta_cm-1>  (22) 
10000

>  <DonorAtom>  (22) 
I

>  <Denticity>  (22) 
1

>  <DenticityDescription>  (22) 
monodentate

>  <MolecularWeight>  (22) 
126.9

>  <HDonors>  (22) 
0

>  <HAcceptors>  (22) 
0

>  <LogP>  (22) 
-3.0

>  <NumAtoms>  (22) 
1

>  <NetFormalCharge>  (22) 
-1

$$$$
IOD
     RDKit          2D

  1  0  0  0  0  0  0  0  0  0999 V2000
    0.0000    0.0000    0.0000 I   0  0  0  0  0  0  0  0  0  0  0  0
M  CHG  1   1  -1
M  END
>  <LigandName>  (23) 
IOD

>  <Denticity>  (23) 
1

>  <DenticityDescription>  (23) 
monodentate

>  <Delta_cm-1>  (23) 
12000

>  <DeltaConfidence>  (23) 
estimated

>  <SMILES>  (23) 
[I-]

>  <NetFormalCharge>  (23) 
-1

$$$$

     RDKit          3D

  3  2  0  0  0  0  0  0  0  0999 V2000
   -0.4955    0.0085    0.0018 C   0  0  0  0  0  0  0  0  0  0  0  0
    0.9674   -0.0166   -0.0034 C   0  0  0  0  0  0  0  0  0  0  0  0
    2.1244   -0.0365   -0.0075 N   0  0  0  0  0  0  0  0  0  0  0  0
  1  2  1  0
  2  3  3  0
M  END
>  <LigandName>  (24) 
MeCN

>  <SMILES>  (24) 
CC#N

>  <FieldStrength>  (24) 
moderate-strong

>  <Delta_cm-1>  (24) 
24000

>  <DonorAtom>  (24) 
N

>  <Denticity>  (24) 
1

>  <DenticityDescription>  (24) 
monodentate

>  <MolecularWeight>  (24) 
41.05

>  <HDonors>  (24) 
0

>  <HAcceptors>  (24) 
1

>  <LogP>  (24) 
0.53

>  <NumAtoms>  (24) 
6

>  <NetFormalCharge>  (24) 
0

$$$$

     RDKit          3D

  2  1  0  0  0  0  0  0  0  0999 V2000
   -0.3538   -0.0437   -0.0377 C   0  0  0  0  0  0  0  0  0  0  0  0
    0.9822   -0.4497   -0.1147 O   0  0  0  0  0  0  0  0  0  0  0  0
  1  2  1  0
M  END
>  <LigandName>  (25) 
MeOH

>  <SMILES>  (25) 
CO

>  <FieldStrength>  (25) 
moderate

>  <Delta_cm-1>  (25) 
20000

>  <DonorAtom>  (25) 
O

>  <Denticity>  (25) 
1

>  <DenticityDescription>  (25) 
monodentate

>  <MolecularWeight>  (25) 
32.04

>  <HDonors>  (25) 
1

>  <HAcceptors>  (25) 
1

>  <LogP>  (25) 
-0.39

>  <NumAtoms>  (25) 
6

>  <NetFormalCharge>  (25) 
0

$$$$

     RDKit          3D

  3  2  0  0  0  0  0  0  0  0999 V2000
   -0.8456   -0.2013    0.5928 N   0  0  0  0  0  0  0  0  0  0  0  0
    0.3991   -0.0552    0.3900 C   0  0  0  0  0  0  0  0  0  0  0  0
    1.9788    0.1303    0.1325 S   0  0  0  0  0  0  0  0  0  0  0  0
  1  2  2  0
  2  3  2  0
M  END
>  <LigandName>  (26) 
NCS⁻ (N-bound)

>  <SMILES>  (26) 
N=C=S

>  <FieldStrength>  (26) 
moderate

>  <Delta_cm-1>  (26) 
20000

>  <DonorAtom>  (26) 
N

>  <Denticity>  (26) 
1

>  <DenticityDescription>  (26) 
monodentate

>  <MolecularWeight>  (26) 
59.09

>  <HDonors>  (26) 
1

>  <HAcceptors>  (26) 
2

>  <LogP>  (26) 
0.67

>  <NumAtoms>  (26) 
4

>  <NetFormalCharge>  (26) 
0

$$$$

     RDKit          3D

  1  0  0  0  0  0  0  0  0  0999 V2000
   -0.0043    0.0112    0.2947 N   0  0  0  0  0  0  0  0  0  0  0  0
M  END
>  <LigandName>  (27) 
NH₃

>  <SMILES>  (27) 
[NH3]

>  <FieldStrength>  (27) 
moderate-strong

>  <Delta_cm-1>  (27) 
23000

>  <DonorAtom>  (27) 
N

>  <Denticity>  (27) 
1

>  <DenticityDescription>  (27) 
monodentate

>  <MolecularWeight>  (27) 
17.03

>  <HDonors>  (27) 
1

>  <HAcceptors>  (27) 
1

>  <LogP>  (27) 
0.16

>  <NumAtoms>  (27) 
4

>  <NetFormalCharge>  (27) 
0

$$$$
NH4
     RDKit          3D

  1  0  0  0  0  0  0  0  0  0999 V2000
    0.0000    0.0000    0.0000 N   0  0  0  0  0  0  0  0  0  0  0  0
M  CHG  1   1   1
M  END
>  <LigandName>  (28) 
NH4

>  <Denticity>  (28) 
1

>  <DenticityDescription>  (28) 
monodentate

>  <Delta_cm-1>  (28) 
20000

>  <DeltaConfidence>  (28) 
default

>  <SMILES>  (28) 
[H][N+]([H])([H])[H]

>  <NetFormalCharge>  (28) 
1

$$$$

     RDKit          3D

  3  2  0  0  0  0  0  0  0  0999 V2000
    1.1628   -0.2017    0.0000 O   0  0  0  0  0  1  0  0  0  0  0  0
   -0.0550    0.4349    0.0000 N   0  0  0  0  0  3  0  0  0  0  0  0
   -1.1078   -0.2333    0.0000 O   0  0  0  0  0  0  0  0  0  0  0  0
  1  2  1  0
  2  3  2  0
M  CHG  2   1  -1   2   1
M  RAD  1   2   2
M  END
>  <LigandName>  (29) 
NO₂⁻

>  <SMILES>  (29) 
[O-][N+](=O)

>  <FieldStrength>  (29) 
strong

>  <Delta_cm-1>  (29) 
27000

>  <DonorAtom>  (29) 
N

>  <Denticity>  (29) 
1

>  <DenticityDescription>  (29) 
monodentate

>  <MolecularWeight>  (29) 
46.01

>  <HDonors>  (29) 
0

>  <HAcceptors>  (29) 
3

>  <LogP>  (29) 
-0.41

>  <NumAtoms>  (29) 
3

>  <NetFormalCharge>  (29) 
0

$$$$
NO3
     RDKit          2D

  4  3  0  0  0  0  0  0  0  0999 V2000
   -0.0000    0.0000   -0.0010 N   0  0  0  0  0  0  0  0  0  0  0  0
   -1.2180    0.0170    0.0000 O   0  0  0  0  0  0  0  0  0  0  0  0
    0.6230    1.0460    0.0000 O   0  0  0  0  0  0  0  0  0  0  0  0
    0.5950   -1.0630    0.0000 O   0  0  0  0  0  0  0  0  0  0  0  0
  1  2  2  0
  1  3  1  0
  1  4  1  0
M  CHG  3   1   1   3  -1   4  -1
M  END
>  <LigandName>  (30) 
NO3

>  <Denticity>  (30) 
1

>  <DenticityDescription>  (30) 
monodentate

>  <Delta_cm-1>  (30) 
20000

>  <DeltaConfidence>  (30) 
estimated

>  <SMILES>  (30) 
O=[N+]([O-])[O-]

>  <NetFormalCharge>  (30) 
-1

$$$$

     RDKit          3D

  4  3  0  0  0  0  0  0  0  0999 V2000
   -1.1292   -0.7553   -0.0083 O   0  0  0  0  0  0  0  0  0  0  0  0
   -0.0027    0.0317    0.0004 N   0  0  0  0  0  0  0  0  0  0  0  0
   -0.1102    1.2739    0.0146 O   0  0  0  0  0  0  0  0  0  0  0  0
    1.2421   -0.5503   -0.0066 O   0  0  0  0  0  1  0  0  0  0  0  0
  1  2  1  0
  2  3  2  0
  2  4  1  0
M  CHG  3   1  -1   2   1   4  -1
M  END
>  <LigandName>  (31) 
NO₃⁻

>  <SMILES>  (31) 
O=N(=O)[O-]

>  <FieldStrength>  (31) 
weak

>  <Delta_cm-1>  (31) 
15000

>  <DonorAtom>  (31) 
O

>  <Denticity>  (31) 
1

>  <DenticityDescription>  (31) 
monodentate

>  <MolecularWeight>  (31) 
62.0

>  <HDonors>  (31) 
0

>  <HAcceptors>  (31) 
3

>  <LogP>  (31) 
-0.24

>  <NumAtoms>  (31) 
4

>  <NetFormalCharge>  (31) 
-1

$$$$

     RDKit          3D

  1  0  0  0  0  0  0  0  0  0999 V2000
    0.4951    0.0000    0.0000 O   0  0  0  0  0  1  0  0  0  0  0  0
M  CHG  1   1  -1
M  END
>  <LigandName>  (32) 
OH⁻

>  <SMILES>  (32) 
[OH-]

>  <FieldStrength>  (32) 
moderate

>  <Delta_cm-1>  (32) 
19000

>  <DonorAtom>  (32) 
O

>  <Denticity>  (32) 
1

>  <DenticityDescription>  (32) 
monodentate

>  <MolecularWeight>  (32) 
17.01

>  <HDonors>  (32) 
0

>  <HAcceptors>  (32) 
1

>  <LogP>  (32) 
-0.18

>  <NumAtoms>  (32) 
2

>  <NetFormalCharge>  (32) 
-1

$$$$

     RDKit          3D

 14 16  0  0  0  0  0  0  0  0999 V2000
   -3.4055   -0.8905    0.1775 C   0  0  0  0  0  0  0  0  0  0  0  0
   -2.8551    0.2973   -0.3074 C   0  0  0  0  0  0  0  0  0  0  0  0
   -1.4654    0.4763   -0.2993 C   0  0  0  0  0  0  0  0  0  0  0  0
   -0.8850    1.6590   -0.7802 C   0  0  0  0  0  0  0  0  0  0  0  0
    0.5035    1.8187   -0.7636 C   0  0  0  0  0  0  0  0  0  0  0  0
    1.3256    0.7973   -0.2661 C   0  0  0  0  0  0  0  0  0  0  0  0
    2.7195    0.9384   -0.2411 C   0  0  0  0  0  0  0  0  0  0  0  0
    3.5136   -0.0949    0.2599 C   0  0  0  0  0  0  0  0  0  0  0  0
    2.9073   -1.2610    0.7319 C   0  0  0  0  0  0  0  0  0  0  0  0
    1.5539   -1.3876    0.7031 N   0  0  0  0  0  0  0  0  0  0  0  0
    0.7498   -0.3992    0.2211 C   0  0  0  0  0  0  0  0  0  0  0  0
   -0.6446   -0.5595    0.2045 C   0  0  0  0  0  0  0  0  0  0  0  0
   -1.2145   -1.7059    0.6701 N   0  0  0  0  0  0  0  0  0  0  0  0
   -2.5616   -1.8899    0.6668 C   0  0  0  0  0  0  0  0  0  0  0  0
  1  2  2  0
  2  3  1  0
  3  4  2  0
  4  5  1  0
  5  6  2  0
  6  7  1  0
  7  8  2  0
  8  9  1  0
  9 10  2  0
 10 11  1  0
 11 12  2  0
 12 13  1  0
 13 14  2  0
 14  1  1  0
 12  3  1  0
 11  6  1  0
M  END
>  <LigandName>  (33) 
phen

>  <SMILES>  (33) 
c1cc2ccc3cccnc3c2nc1

>  <FieldStrength>  (33) 
strong

>  <Delta_cm-1>  (33) 
27000

>  <DonorAtom>  (33) 
N,N

>  <Denticity>  (33) 
2

>  <DenticityDescription>  (33) 
bidentate

>  <MolecularWeight>  (33) 
180.21

>  <HDonors>  (33) 
0

>  <HAcceptors>  (33) 
2

>  <LogP>  (33) 
2.78

>  <NumAtoms>  (33) 
22

>  <NetFormalCharge>  (33) 
0

$$$$
PO4
     RDKit          3D

  5  4  0  0  0  0  0  0  0  0999 V2000
    0.0000    0.0000    0.0000 P   0  0  0  0  0  0  0  0  0  0  0  0
    0.0000   -1.2880   -0.9110 O   0  0  0  0  0  0  0  0  0  0  0  0
    0.0000    1.2880   -0.9110 O   0  0  0  0  0  0  0  0  0  0  0  0
   -1.2880    0.0000    0.9110 O   0  0  0  0  0  0  0  0  0  0  0  0
    1.2880    0.0000    0.9110 O   0  0  0  0  0  0  0  0  0  0  0  0
  1  2  2  0
  1  3  1  0
  1  4  1  0
  1  5  1  0
M  CHG  3   3  -1   4  -1   5  -1
M  END
>  <LigandName>  (34) 
PO4

>  <Denticity>  (34) 
1

>  <DenticityDescription>  (34) 
monodentate

>  <Delta_cm-1>  (34) 
22000

>  <DeltaConfidence>  (34) 
estimated

>  <SMILES>  (34) 
O=P([O-])([O-])[O-]

>  <NetFormalCharge>  (34) 
-3

$$$$

     RDKit          3D

 19 21  0  0  0  0  0  0  0  0999 V2000
   -0.7603    4.1175   -1.0264 C   0  0  0  0  0  0  0  0  0  0  0  0
   -1.3684    3.9491    0.2213 C   0  0  0  0  0  0  0  0  0  0  0  0
   -1.1942    2.7564    0.9285 C   0  0  0  0  0  0  0  0  0  0  0  0
   -0.4071    1.7263    0.3959 C   0  0  0  0  0  0  0  0  0  0  0  0
    0.1909    1.8960   -0.8648 C   0  0  0  0  0  0  0  0  0  0  0  0
    0.0160    3.0898   -1.5705 C   0  0  0  0  0  0  0  0  0  0  0  0
   -0.2292    0.1606    1.3621 P   0  0  0  0  0  0  0  0  0  0  0  0
    1.4489   -0.4450    0.8780 C   0  0  0  0  0  0  0  0  0  0  0  0
    2.5507   -0.0811    1.6640 C   0  0  0  0  0  0  0  0  0  0  0  0
    3.8354   -0.5164    1.3208 C   0  0  0  0  0  0  0  0  0  0  0  0
    4.0254   -1.3119    0.1870 C   0  0  0  0  0  0  0  0  0  0  0  0
    2.9326   -1.6713   -0.6071 C   0  0  0  0  0  0  0  0  0  0  0  0
    1.6477   -1.2391   -0.2660 C   0  0  0  0  0  0  0  0  0  0  0  0
   -1.3660   -1.0546    0.5506 C   0  0  0  0  0  0  0  0  0  0  0  0
   -2.0591   -0.7565   -0.6353 C   0  0  0  0  0  0  0  0  0  0  0  0
   -2.8642   -1.7278   -1.2391 C   0  0  0  0  0  0  0  0  0  0  0  0
   -2.9880   -2.9957   -0.6627 C   0  0  0  0  0  0  0  0  0  0  0  0
   -2.3078   -3.2947    0.5199 C   0  0  0  0  0  0  0  0  0  0  0  0
   -1.4998   -2.3278    1.1238 C   0  0  0  0  0  0  0  0  0  0  0  0
  1  2  2  0
  2  3  1  0
  3  4  2  0
  4  5  1  0
  5  6  2  0
  4  7  1  0
  7  8  1  0
  8  9  2  0
  9 10  1  0
 10 11  2  0
 11 12  1  0
 12 13  2  0
  7 14  1  0
 14 15  2  0
 15 16  1  0
 16 17  2  0
 17 18  1  0
 18 19  2  0
  6  1  1  0
 13  8  1  0
 19 14  1  0
M  END
>  <LigandName>  (35) 
PPh₃

>  <SMILES>  (35) 
C1=CC=C(C=C1)P(C2=CC=CC=C2)C3=CC=CC=C3

>  <FieldStrength>  (35) 
strong

>  <Delta_cm-1>  (35) 
28000

>  <DonorAtom>  (35) 
P

>  <Denticity>  (35) 
1

>  <DenticityDescription>  (35) 
monodentate

>  <MolecularWeight>  (35) 
262.29

>  <HDonors>  (35) 
0

>  <HAcceptors>  (35) 
0

>  <LogP>  (35) 
3.44

>  <NumAtoms>  (35) 
34

>  <NetFormalCharge>  (35) 
0

$$$$

     RDKit          3D

  6  6  0  0  0  0  0  0  0  0999 V2000
   -0.0941    1.1707   -0.0128 C   0  0  0  0  0  0  0  0  0  0  0  0
   -1.2421    0.3760    0.0241 C   0  0  0  0  0  0  0  0  0  0  0  0
   -1.1095   -1.0152    0.0388 C   0  0  0  0  0  0  0  0  0  0  0  0
    0.1272   -1.5819    0.0173 N   0  0  0  0  0  0  0  0  0  0  0  0
    1.2575   -0.8256   -0.0187 C   0  0  0  0  0  0  0  0  0  0  0  0
    1.1662    0.5689   -0.0344 C   0  0  0  0  0  0  0  0  0  0  0  0
  1  2  2  0
  2  3  1  0
  3  4  2  0
  4  5  1  0
  5  6  2  0
  6  1  1  0
M  END
>  <LigandName>  (36) 
py

>  <SMILES>  (36) 
c1ccncc1

>  <FieldStrength>  (36) 
moderate

>  <Delta_cm-1>  (36) 
22000

>  <DonorAtom>  (36) 
N

>  <Denticity>  (36) 
1

>  <DenticityDescription>  (36) 
monodentate

>  <MolecularWeight>  (36) 
79.1

>  <HDonors>  (36) 
0

>  <HAcceptors>  (36) 
1

>  <LogP>  (36) 
1.08

>  <NumAtoms>  (36) 
11

>  <NetFormalCharge>  (36) 
0

$$$$

     RDKit          3D

  5  5  0  0  0  0  0  0  0  0999 V2000
   -1.1315   -0.2769   -0.1509 C   0  0  0  0  0  0  0  0  0  0  0  0
   -0.4322    1.0580   -0.1806 C   0  0  0  0  0  0  0  0  0  0  0  0
    1.0275    0.7008   -0.3679 C   0  0  0  0  0  0  0  0  0  0  0  0
    1.2408   -0.6246    0.2131 N   0  0  0  0  0  0  0  0  0  0  0  0
   -0.0780   -1.2505    0.3552 C   0  0  0  0  0  0  0  0  0  0  0  0
  1  2  1  0
  2  3  1  0
  3  4  1  0
  4  5  1  0
  5  1  1  0
M  END
>  <LigandName>  (37) 
Pyrrolidine

>  <SMILES>  (37) 
C1CC[NH]C1

>  <FieldStrength>  (37) 
strong

>  <Delta_cm-1>  (37) 
25000

>  <DonorAtom>  (37) 
N

>  <Denticity>  (37) 
1

>  <DenticityDescription>  (37) 
monodentate

>  <MolecularWeight>  (37) 
71.12

>  <HDonors>  (37) 
1

>  <HAcceptors>  (37) 
1

>  <LogP>  (37) 
0.37

>  <NumAtoms>  (37) 
14

>  <NetFormalCharge>  (37) 
0

$$$$

     RDKit          3D

  1  0  0  0  0  0  0  0  0  0999 V2000
    4.0000    0.0000    0.0000 S   0  0  0  0  0 15  0  0  0  0  0  0
M  CHG  1   1  -2
M  END
>  <LigandName>  (38) 
S²⁻

>  <SMILES>  (38) 
[S-2]

>  <FieldStrength>  (38) 
very weak

>  <Delta_cm-1>  (38) 
11000

>  <DonorAtom>  (38) 
S

>  <Denticity>  (38) 
1

>  <DenticityDescription>  (38) 
monodentate

>  <MolecularWeight>  (38) 
32.07

>  <HDonors>  (38) 
0

>  <HAcceptors>  (38) 
0

>  <LogP>  (38) 
-0.0

>  <NumAtoms>  (38) 
1

>  <NetFormalCharge>  (38) 
-2

$$$$

     RDKit          3D

  3  2  0  0  0  0  0  0  0  0999 V2000
    1.9000   -0.1238   -0.3739 S   0  0  0  0  0  0  0  0  0  0  0  0
    0.3954    0.1500    0.1337 C   0  0  0  0  0  0  0  0  0  0  0  0
   -0.7901    0.3656    0.5335 N   0  0  0  0  0  0  0  0  0  0  0  0
  1  2  2  0
  2  3  2  0
M  END
>  <LigandName>  (39) 
SCN⁻ (S-bound)

>  <SMILES>  (39) 
S=C=N

>  <FieldStrength>  (39) 
weak

>  <Delta_cm-1>  (39) 
14000

>  <DonorAtom>  (39) 
S

>  <Denticity>  (39) 
1

>  <DenticityDescription>  (39) 
monodentate

>  <MolecularWeight>  (39) 
59.09

>  <HDonors>  (39) 
1

>  <HAcceptors>  (39) 
2

>  <LogP>  (39) 
0.67

>  <NumAtoms>  (39) 
4

>  <NetFormalCharge>  (39) 
0

$$$$
SO4
     RDKit          3D

  5  4  0  0  0  0  0  0  0  0999 V2000
    0.0000    0.0000    0.0000 S   0  0  0  0  0  0  0  0  0  0  0  0
    0.0000   -1.2010   -0.8500 O   0  0  0  0  0  0  0  0  0  0  0  0
    0.0000    1.2010   -0.8500 O   0  0  0  0  0  0  0  0  0  0  0  0
   -1.2010    0.0000    0.8500 O   0  0  0  0  0  0  0  0  0  0  0  0
    1.2010    0.0000    0.8500 O   0  0  0  0  0  0  0  0  0  0  0  0
  1  2  2  0
  1  3  2  0
  1  4  1  0
  1  5  1  0
M  CHG  2   4  -1   5  -1
M  END
>  <LigandName>  (40) 
SO4

>  <Denticity>  (40) 
1

>  <DenticityDescription>  (40) 
monodentate

>  <Delta_cm-1>  (40) 
19000

>  <DeltaConfidence>  (40) 
estimated

>  <SMILES>  (40) 
O=S(=O)([O-])[O-]

>  <NetFormalCharge>  (40) 
-2

$$$$

     RDKit          3D

  5  5  0  0  0  0  0  0  0  0999 V2000
    0.3815   -0.9875   -0.0812 C   0  0  0  0  0  0  0  0  0  0  0  0
   -0.9850   -0.3808   -0.1098 C   0  0  0  0  0  0  0  0  0  0  0  0
   -0.6967    1.0972   -0.2702 C   0  0  0  0  0  0  0  0  0  0  0  0
    0.6060    1.3739    0.1918 O   0  0  0  0  0  0  0  0  0  0  0  0
    1.2433    0.1420    0.4432 C   0  0  0  0  0  0  0  0  0  0  0  0
  1  2  1  0
  2  3  1  0
  3  4  1  0
  4  5  1  0
  5  1  1  0
M  END
>  <LigandName>  (41) 
THF

>  <SMILES>  (41) 
C1CCOC1

>  <FieldStrength>  (41) 
moderate

>  <Delta_cm-1>  (41) 
21000

>  <DonorAtom>  (41) 
O

>  <Denticity>  (41) 
1

>  <DenticityDescription>  (41) 
monodentate

>  <MolecularWeight>  (41) 
72.11

>  <HDonors>  (41) 
0

>  <HAcceptors>  (41) 
1

>  <LogP>  (41) 
0.8

>  <NumAtoms>  (41) 
13

>  <NetFormalCharge>  (41) 
0

$$$$
