ACE
     RDKit          3D

  3  2  0  0  0  0  0  0  0  0999 V2000
   -0.1330    0.4530    0.0000 C   0  0  0  0  0  0  0  0  0  0  0  0
   -1.1130   -0.2520    0.0000 O   0  0  0  0  0  0  0  0  0  0  0  0
    1.2410   -0.1670    0.0000 C   0  0  0  0  0  0  0  0  0  0  0  0
  1  2  2  0
  1  3  1  0
M  END
>  <LigandName>  (1) 
ACE

>  <Denticity>  (1) 
0

>  <DenticityDescription>  (1) 
non-dentate

>  <Delta_cm-1>  (1) 
20000

>  <DeltaConfidence>  (1) 
default

>  <SMILES>  (1) 
[H]C(=O)C([H])([H])[H]

>  <NetFormalCharge>  (1) 
0

$$$$

     RDKit          3D

  4  3  0  0  0  0  0  0  0  0999 V2000
   -0.6640   -0.0294    0.0617 C   0  0  0  0  0  0  0  0  0  0  0  0
    0.8151    0.0684   -0.1004 C   0  0  0  0  0  0  0  0  0  0  0  0
    1.3494    1.1764   -0.3678 O   0  0  0  0  0  0  0  0  0  0  0  0
    1.6125   -1.0516    0.0965 O   0  0  0  0  0  1  0  0  0  0  0  0
  1  2  1  0
  2  3  2  0
  2  4  1  0
M  CHG  1   4  -1
M  END
>  <LigandName>  (2) 
Acetate

>  <SMILES>  (2) 
CC(=O)[O-]

>  <FieldStrength>  (2) 
moderate

>  <Delta_cm-1>  (2) 
20000

>  <DonorAtom>  (2) 
O,O

>  <Denticity>  (2) 
3

>  <DenticityDescription>  (2) 
tridentate

>  <MolecularWeight>  (2) 
59.04

>  <HDonors>  (2) 
0

>  <HAcceptors>  (2) 
2

>  <LogP>  (2) 
-1.24

>  <NumAtoms>  (2) 
7

>  <NetFormalCharge>  (2) 
-1

$$$$
ACT
     RDKit          3D

  4  3  0  0  0  0  0  0  0  0999 V2000
   -0.0720    0.0000    0.0000 C   0  0  0  0  0  0  0  0  0  0  0  0
   -0.6820    1.0560    0.0000 O   0  0  0  0  0  0  0  0  0  0  0  0
   -0.6820   -1.0560    0.0000 O   0  0  0  0  0  0  0  0  0  0  0  0
    1.4350    0.0000    0.0000 C   0  0  0  0  0  0  0  0  0  0  0  0
  1  2  2  0
  1  3  1  0
  1  4  1  0
M  CHG  1   3  -1
M  END
>  <LigandName>  (3) 
ACT

>  <Denticity>  (3) 
3

>  <DenticityDescription>  (3) 
tridentate

>  <Delta_cm-1>  (3) 
20000

>  <DeltaConfidence>  (3) 
estimated

>  <SMILES>  (3) 
[H]C([H])([H])C(=O)[O-]

>  <NetFormalCharge>  (3) 
-1

$$$$
ADP
     RDKit          3D

 27 29  0  0  1  0  0  0  0  0999 V2000
    1.1620   -0.2210   -5.6850 P   0  0  0  0  0  0  0  0  0  0  0  0
    1.7250    1.1330   -5.4920 O   0  0  0  0  0  0  0  0  0  0  0  0
    2.1900   -1.1120   -6.5460 O   0  0  0  0  0  0  0  0  0  0  0  0
   -0.2400   -0.1130   -6.4670 O   0  0  0  0  0  0  0  0  0  0  0  0
   -0.1050    0.0250   -3.4460 P   0  0  1  0  0  0  0  0  0  0  0  0
    0.4760    1.3760   -3.2880 O   0  0  0  0  0  0  0  0  0  0  0  0
   -1.4870    0.1290   -4.2660 O   0  0  0  0  0  0  0  0  0  0  0  0
    0.9250   -0.9130   -4.2500 O   0  0  0  0  0  0  0  0  0  0  0  0
   -0.3890   -0.6090   -1.9940 O   0  0  0  0  0  0  0  0  0  0  0  0
   -1.3070    0.2640   -1.3330 C   0  0  0  0  0  0  0  0  0  0  0  0
   -1.6200   -0.2840    0.0590 C   0  0  1  0  0  0  0  0  0  0  0  0
   -0.4170   -0.3480    0.8570 O   0  0  0  0  0  0  0  0  0  0  0  0
   -2.5500    0.6830    0.8250 C   0  0  1  0  0  0  0  0  0  0  0  0
   -3.9070    0.2450    0.7390 O   0  0  0  0  0  0  0  0  0  0  0  0
   -2.0470    0.6110    2.2860 C   0  0  1  0  0  0  0  0  0  0  0  0
   -3.0800    0.1290    3.1480 O   0  0  0  0  0  0  0  0  0  0  0  0
   -0.8710   -0.3880    2.2270 C   0  0  2  0  0  0  0  0  0  0  0  0
    0.2010    0.0310    3.1320 N   0  0  0  0  0  0  0  0  0  0  0  0
    1.2310    0.8700    2.8270 C   0  0  0  0  0  0  0  0  0  0  0  0
    2.0000    1.0270    3.8650 N   0  0  0  0  0  0  0  0  0  0  0  0
    1.5090    0.3050    4.9020 C   0  0  0  0  0  0  0  0  0  0  0  0
    1.9100    0.0870    6.2310 C   0  0  0  0  0  0  0  0  0  0  0  0
    3.0440    0.6970    6.7380 N   0  0  0  0  0  0  0  0  0  0  0  0
    1.1710   -0.7140    6.9910 N   0  0  0  0  0  0  0  0  0  0  0  0
    0.0880   -1.3000    6.5160 C   0  0  0  0  0  0  0  0  0  0  0  0
   -0.3210   -1.1300    5.2770 N   0  0  0  0  0  0  0  0  0  0  0  0
    0.3530   -0.3460    4.4420 C   0  0  0  0  0  0  0  0  0  0  0  0
  1  2  2  0
  1  3  1  0
  1  4  1  0
  1  8  1  0
  5  6  2  0
  5  7  1  6
  5  8  1  0
  5  9  1  0
  9 10  1  0
 11 10  1  6
 11 12  1  0
 11 13  1  0
 12 17  1  0
 13 14  1  1
 13 15  1  0
 15 16  1  1
 15 17  1  0
 17 18  1  1
 18 19  1  0
 18 27  1  0
 19 20  2  0
 20 21  1  0
 21 22  1  0
 21 27  2  0
 22 23  1  0
 22 24  2  0
 24 25  1  0
 25 26  2  0
 26 27  1  0
M  END
>  <LigandName>  (4) 
ADP

>  <Denticity>  (4) 
12

>  <DenticityDescription>  (4) 
12-dentate

>  <Delta_cm-1>  (4) 
22916

>  <DeltaConfidence>  (4) 
estimated

>  <SMILES>  (4) 
[H]O[C@@]1([H])[C@@]([H])(O[H])[C@]([H])(n2c([H])nc3c(N([H])[H])nc([H])nc32)O[C@]1([H])C([H])([H])O[P@](=O)(O[H])OP(=O)(O[H])O[H]

>  <NetFormalCharge>  (4) 
0

$$$$
AMP
     RDKit          3D

 23 25  0  0  1  0  0  0  0  0999 V2000
   -4.7830   -0.9800    0.1050 P   0  0  0  0  0  0  0  0  0  0  0  0
   -5.8200   -0.0050   -0.3020 O   0  0  0  0  0  0  0  0  0  0  0  0
   -5.3110   -1.8280    1.3680 O   0  0  0  0  0  0  0  0  0  0  0  0
   -4.4740   -1.9780   -1.1190 O   0  0  0  0  0  0  0  0  0  0  0  0
   -3.4370   -0.1950    0.5110 O   0  0  0  0  0  0  0  0  0  0  0  0
   -2.7820    0.7270   -0.3620 C   0  0  0  0  0  0  0  0  0  0  0  0
   -1.5400    1.2900    0.3310 C   0  0  1  0  0  0  0  0  0  0  0  0
   -0.5710    0.2460    0.5230 O   0  0  0  0  0  0  0  0  0  0  0  0
   -0.8850    2.3650   -0.5580 C   0  0  1  0  0  0  0  0  0  0  0  0
   -0.8520    3.6230    0.1190 O   0  0  0  0  0  0  0  0  0  0  0  0
    0.5520    1.8390   -0.7940 C   0  0  1  0  0  0  0  0  0  0  0  0
    1.5030    2.9030   -0.7200 O   0  0  0  0  0  0  0  0  0  0  0  0
    0.7330    0.8500    0.3860 C   0  0  2  0  0  0  0  0  0  0  0  0
    1.7400   -0.1630    0.0600 N   0  0  0  0  0  0  0  0  0  0  0  0
    1.5080   -1.3690   -0.5300 C   0  0  0  0  0  0  0  0  0  0  0  0
    2.6280   -2.0170   -0.6720 N   0  0  0  0  0  0  0  0  0  0  0  0
    3.6460   -1.2700   -0.1830 C   0  0  0  0  0  0  0  0  0  0  0  0
    5.0360   -1.4470   -0.0690 C   0  0  0  0  0  0  0  0  0  0  0  0
    5.6420   -2.6060   -0.5200 N   0  0  0  0  0  0  0  0  0  0  0  0
    5.7550   -0.4740    0.4820 N   0  0  0  0  0  0  0  0  0  0  0  0
    5.1860    0.6360    0.9140 C   0  0  0  0  0  0  0  0  0  0  0  0
    3.8890    0.8450    0.8290 N   0  0  0  0  0  0  0  0  0  0  0  0
    3.0900   -0.0680    0.2870 C   0  0  0  0  0  0  0  0  0  0  0  0
  1  2  2  0
  1  3  1  0
  1  4  1  0
  1  5  1  0
  5  6  1  0
  7  6  1  6
  7  8  1  0
  7  9  1  0
  8 13  1  0
  9 10  1  1
  9 11  1  0
 11 12  1  1
 11 13  1  0
 13 14  1  6
 14 15  1  0
 14 23  1  0
 15 16  2  0
 16 17  1  0
 17 18  1  0
 17 23  2  0
 18 19  1  0
 18 20  2  0
 20 21  1  0
 21 22  2  0
 22 23  1  0
M  END
>  <LigandName>  (5) 
AMP

>  <Denticity>  (5) 
10

>  <DenticityDescription>  (5) 
10-dentate

>  <Delta_cm-1>  (5) 
22700

>  <DeltaConfidence>  (5) 
estimated

>  <SMILES>  (5) 
[H]O[C@@]1([H])[C@@]([H])(O[H])[C@]([H])(n2c([H])nc3c(N([H])[H])nc([H])nc32)O[C@]1([H])C([H])([H])OP(=O)(O[H])O[H]

>  <NetFormalCharge>  (5) 
0

$$$$

     RDKit          3D

  7  7  0  0  0  0  0  0  0  0999 V2000
    0.1453   -1.1431    0.4238 C   0  0  0  0  0  0  0  0  0  0  0  0
   -1.2441   -1.0362    0.5455 C   0  0  0  0  0  0  0  0  0  0  0  0
   -1.8916    0.1435    0.1665 C   0  0  0  0  0  0  0  0  0  0  0  0
   -1.1505    1.2178   -0.3347 C   0  0  0  0  0  0  0  0  0  0  0  0
    0.2389    1.1140   -0.4576 C   0  0  0  0  0  0  0  0  0  0  0  0
    0.8938   -0.0678   -0.0787 C   0  0  0  0  0  0  0  0  0  0  0  0
    2.3142   -0.1756   -0.2037 N   0  0  0  0  0  0  0  0  0  0  0  0
  1  2  2  0
  2  3  1  0
  3  4  2  0
  4  5  1  0
  5  6  2  0
  6  7  1  0
  6  1  1  0
M  END
>  <LigandName>  (6) 
Aniline

>  <SMILES>  (6) 
c1ccccc1N

>  <FieldStrength>  (6) 
moderate

>  <Delta_cm-1>  (6) 
21000

>  <DonorAtom>  (6) 
N

>  <Denticity>  (6) 
1

>  <DenticityDescription>  (6) 
monodentate

>  <MolecularWeight>  (6) 
93.13

>  <HDonors>  (6) 
1

>  <HAcceptors>  (6) 
1

>  <LogP>  (6) 
1.27

>  <NumAtoms>  (6) 
14

>  <NetFormalCharge>  (6) 
0

$$$$
ATP
     RDKit          3D

 31 33  0  0  1  0  0  0  0  0999 V2000
    1.2000   -0.2260   -6.8500 P   0  0  0  0  0  0  0  0  0  0  0  0
    1.7400    1.1400   -6.6720 O   0  0  0  0  0  0  0  0  0  0  0  0
    2.1230   -1.0360   -7.8910 O   0  0  0  0  0  0  0  0  0  0  0  0
   -0.3020   -0.1390   -7.4210 O   0  0  0  0  0  0  0  0  0  0  0  0
    0.2550   -0.1300   -4.4460 P   0  0  1  0  0  0  0  0  0  0  0  0
    0.8100    1.2340   -4.3040 O   0  0  0  0  0  0  0  0  0  0  0  0
   -1.2310   -0.0440   -5.0570 O   0  0  0  0  0  0  0  0  0  0  0  0
    1.1920   -0.9900   -5.4330 O   0  0  0  0  0  0  0  0  0  0  0  0
   -0.7450    0.0680   -2.0710 P   0  0  2  0  0  0  0  0  0  0  0  0
   -2.0970    0.1430   -2.6690 O   0  0  0  0  0  0  0  0  0  0  0  0
   -0.1250    1.5490   -1.9570 O   0  0  0  0  0  0  0  0  0  0  0  0
    0.2030   -0.8400   -3.0020 O   0  0  0  0  0  0  0  0  0  0  0  0
   -0.8440   -0.5870   -0.6040 O   0  0  0  0  0  0  0  0  0  0  0  0
   -1.6940    0.2600    0.1700 C   0  0  0  0  0  0  0  0  0  0  0  0
   -1.8310   -0.3090    1.5840 C   0  0  1  0  0  0  0  0  0  0  0  0
   -0.5420   -0.3550    2.2340 O   0  0  0  0  0  0  0  0  0  0  0  0
   -2.6830    0.6300    2.4650 C   0  0  1  0  0  0  0  0  0  0  0  0
   -4.0330    0.1650    2.5340 O   0  0  0  0  0  0  0  0  0  0  0  0
   -2.0110    0.5550    3.8560 C   0  0  1  0  0  0  0  0  0  0  0  0
   -2.9260    0.0430    4.8270 O   0  0  0  0  0  0  0  0  0  0  0  0
   -0.8300   -0.4180    3.6470 C   0  0  2  0  0  0  0  0  0  0  0  0
    0.3320    0.0150    4.4250 N   0  0  0  0  0  0  0  0  0  0  0  0
    1.3020    0.8790    4.0120 C   0  0  0  0  0  0  0  0  0  0  0  0
    2.1840    1.0420    4.9550 N   0  0  0  0  0  0  0  0  0  0  0  0
    1.8330    0.3000    6.0330 C   0  0  0  0  0  0  0  0  0  0  0  0
    2.3910    0.0770    7.3030 C   0  0  0  0  0  0  0  0  0  0  0  0
    3.5640    0.7060    7.6810 N   0  0  0  0  0  0  0  0  0  0  0  0
    1.7630   -0.7470    8.1350 N   0  0  0  0  0  0  0  0  0  0  0  0
    0.6440   -1.3520    7.7830 C   0  0  0  0  0  0  0  0  0  0  0  0
    0.0880   -1.1780    6.6020 N   0  0  0  0  0  0  0  0  0  0  0  0
    0.6440   -0.3710    5.7040 C   0  0  0  0  0  0  0  0  0  0  0  0
  1  2  2  0
  1  3  1  0
  1  4  1  0
  1  8  1  0
  5  6  2  0
  5  7  1  6
  5  8  1  0
  5 12  1  0
  9 10  2  0
  9 11  1  1
  9 12  1  0
  9 13  1  0
 13 14  1  0
 15 14  1  6
 15 16  1  0
 15 17  1  0
 16 21  1  0
 17 18  1  1
 17 19  1  0
 19 20  1  1
 19 21  1  0
 21 22  1  1
 22 23  1  0
 22 31  1  0
 23 24  2  0
 24 25  1  0
 25 26  1  0
 25 31  2  0
 26 27  1  0
 26 28  2  0
 28 29  1  0
 29 30  2  0
 30 31  1  0
M  END
>  <LigandName>  (7) 
ATP

>  <Denticity>  (7) 
14

>  <DenticityDescription>  (7) 
14-dentate

>  <Delta_cm-1>  (7) 
23071

>  <DeltaConfidence>  (7) 
estimated

>  <SMILES>  (7) 
[H]O[C@@]1([H])[C@@]([H])(O[H])[C@]([H])(n2c([H])nc3c(N([H])[H])nc([H])nc32)O[C@]1([H])C([H])([H])O[P@@](=O)(O[H])O[P@](=O)(O[H])OP(=O)(O[H])O[H]

>  <NetFormalCharge>  (7) 
0

$$$$
BA
     RDKit          2D

  1  0  0  0  0  0  0  0  0  0999 V2000
    0.0000    0.0000    0.0000 Ba  0  0  0  0  0 15  0  0  0  0  0  0
M  CHG  1   1   2
M  END
>  <LigandName>  (8) 
BA

>  <Denticity>  (8) 
0

>  <DenticityDescription>  (8) 
non-dentate

>  <Delta_cm-1>  (8) 
20000

>  <DeltaConfidence>  (8) 
default

>  <SMILES>  (8) 
[Ba+2]

>  <NetFormalCharge>  (8) 
2

$$$$

     RDKit          3D

 12 13  0  0  0  0  0  0  0  0999 V2000
   -2.9258   -0.8042   -0.4516 C   0  0  0  0  0  0  0  0  0  0  0  0
   -3.5161    0.1183    0.4107 C   0  0  0  0  0  0  0  0  0  0  0  0
   -2.7041    1.0035    1.1178 C   0  0  0  0  0  0  0  0  0  0  0  0
   -1.3544    0.9605    0.9623 N   0  0  0  0  0  0  0  0  0  0  0  0
   -0.7395    0.0728    0.1285 C   0  0  0  0  0  0  0  0  0  0  0  0
   -1.5371   -0.8346   -0.5995 C   0  0  0  0  0  0  0  0  0  0  0  0
    0.7449    0.1124    0.0338 C   0  0  0  0  0  0  0  0  0  0  0  0
    1.4905   -0.7540   -0.7928 C   0  0  0  0  0  0  0  0  0  0  0  0
    2.8832   -0.6495   -0.8224 C   0  0  0  0  0  0  0  0  0  0  0  0
    3.5285    0.3059   -0.0390 C   0  0  0  0  0  0  0  0  0  0  0  0
    2.7672    1.1492    0.7687 C   0  0  0  0  0  0  0  0  0  0  0  0
    1.4129    1.0342    0.7857 N   0  0  0  0  0  0  0  0  0  0  0  0
  1  2  2  0
  2  3  1  0
  3  4  2  0
  4  5  1  0
  5  6  2  0
  5  7  1  0
  7  8  2  0
  8  9  1  0
  9 10  2  0
 10 11  1  0
 11 12  2  0
  6  1  1  0
 12  7  1  0
M  END
>  <LigandName>  (9) 
bipy

>  <SMILES>  (9) 
c1ccnc(c1)c2ccccn2

>  <FieldStrength>  (9) 
strong

>  <Delta_cm-1>  (9) 
26000

>  <DonorAtom>  (9) 
N,N

>  <Denticity>  (9) 
2

>  <DenticityDescription>  (9) 
bidentate

>  <MolecularWeight>  (9) 
156.19

>  <HDonors>  (9) 
0

>  <HAcceptors>  (9) 
2

>  <LogP>  (9) 
2.14

>  <NumAtoms>  (9) 
20

>  <NetFormalCharge>  (9) 
0

$$$$
BMA
     RDKit          3D

 12 12  0  0  1  0  0  0  0  0999 V2000
   -1.4420   -0.5780   -0.5040 C   0  0  2  0  0  0  0  0  0  0  0  0
   -0.4930   -0.1940   -1.6420 C   0  0  2  0  0  0  0  0  0  0  0  0
    0.9450   -0.5150   -1.2230 C   0  0  2  0  0  0  0  0  0  0  0  0
    1.2270    0.1680    0.1190 C   0  0  1  0  0  0  0  0  0  0  0  0
    0.1490   -0.2440    1.1240 C   0  0  1  0  0  0  0  0  0  0  0  0
    0.4420    0.4050    2.4780 C   0  0  0  0  0  0  0  0  0  0  0  0
   -2.7890   -0.3110   -0.8990 O   0  0  0  0  0  0  0  0  0  0  0  0
   -0.6140    1.2020   -1.9150 O   0  0  0  0  0  0  0  0  0  0  0  0
    1.8530   -0.0270   -2.2130 O   0  0  0  0  0  0  0  0  0  0  0  0
    2.5100   -0.2350    0.6010 O   0  0  0  0  0  0  0  0  0  0  0  0
   -1.1300    0.1810    0.6610 O   0  0  0  0  0  0  0  0  0  0  0  0
   -0.5610    0.0180    3.4190 O   0  0  0  0  0  0  0  0  0  0  0  0
  1  2  1  0
  1  7  1  6
  1 11  1  0
  2  3  1  0
  2  8  1  1
  3  4  1  0
  3  9  1  6
  4  5  1  0
  4 10  1  1
  5  6  1  1
  5 11  1  0
  6 12  1  0
M  END
>  <LigandName>  (10) 
BMA

>  <Denticity>  (10) 
5

>  <DenticityDescription>  (10) 
pentadentate

>  <Delta_cm-1>  (10) 
20000

>  <DeltaConfidence>  (10) 
estimated

>  <SMILES>  (10) 
[H]OC([H])([H])[C@@]1([H])O[C@@]([H])(O[H])[C@@]([H])(O[H])[C@@]([H])(O[H])[C@]1([H])O[H]

>  <NetFormalCharge>  (10) 
0

$$$$
BR
     RDKit          2D

  1  0  0  0  0  0  0  0  0  0999 V2000
    0.0000    0.0000    0.0000 Br  0  0  0  0  0  0  0  0  0  0  0  0
M  CHG  1   1  -1
M  END
>  <LigandName>  (11) 
BR

>  <Denticity>  (11) 
1

>  <DenticityDescription>  (11) 
monodentate

>  <Delta_cm-1>  (11) 
12000

>  <DeltaConfidence>  (11) 
estimated

>  <SMILES>  (11) 
[Br-]

>  <NetFormalCharge>  (11) 
-1

$$$$

     RDKit          3D

  1  0  0  0  0  0  0  0  0  0999 V2000
    4.0000    0.0000    0.0000 Br  0  0  0  0  0 15  0  0  0  0  0  0
M  CHG  1   1  -1
M  END
>  <LigandName>  (12) 
Br⁻

>  <SMILES>  (12) 
[Br-]

>  <FieldStrength>  (12) 
very weak

>  <Delta_cm-1>  (12) 
12000

>  <DonorAtom>  (12) 
Br

>  <Denticity>  (12) 
1

>  <DenticityDescription>  (12) 
monodentate

>  <MolecularWeight>  (12) 
79.9

>  <HDonors>  (12) 
0

>  <HAcceptors>  (12) 
0

>  <LogP>  (12) 
-3.0

>  <NumAtoms>  (12) 
1

>  <NetFormalCharge>  (12) 
-1

$$$$

     RDKit          3D

  6  5  0  0  0  0  0  0  0  0999 V2000
   -1.2299   -1.2383   -0.0412 O   0  0  0  0  0  0  0  0  0  0  0  0
   -0.7276   -0.0846   -0.0059 C   0  0  0  0  0  0  0  0  0  0  0  0
   -1.5609    1.0268    0.0217 O   0  0  0  0  0  1  0  0  0  0  0  0
    0.7276    0.0846    0.0059 C   0  0  0  0  0  0  0  0  0  0  0  0
    1.2299    1.2383    0.0412 O   0  0  0  0  0  0  0  0  0  0  0  0
    1.5609   -1.0268   -0.0217 O   0  0  0  0  0  1  0  0  0  0  0  0
  1  2  2  0
  2  3  1  0
  2  4  1  0
  4  5  2  0
  4  6  1  0
M  CHG  2   3  -1   6  -1
M  END
>  <LigandName>  (13) 
C₂O₄²⁻

>  <SMILES>  (13) 
O=C([O-])C(=O)[O-]

>  <FieldStrength>  (13) 
moderate

>  <Delta_cm-1>  (13) 
20000

>  <DonorAtom>  (13) 
O,O

>  <Denticity>  (13) 
6

>  <DenticityDescription>  (13) 
hexadentate

>  <MolecularWeight>  (13) 
88.02

>  <HDonors>  (13) 
0

>  <HAcceptors>  (13) 
4

>  <LogP>  (13) 
-3.51

>  <NumAtoms>  (13) 
6

>  <NetFormalCharge>  (13) 
-2

$$$$
CA
     RDKit          2D

  1  0  0  0  0  0  0  0  0  0999 V2000
    0.0000    0.0000    0.0000 Ca  0  0  0  0  0 15  0  0  0  0  0  0
M  CHG  1   1   2
M  END
>  <LigandName>  (14) 
CA

>  <Denticity>  (14) 
0

>  <DenticityDescription>  (14) 
non-dentate

>  <Delta_cm-1>  (14) 
20000

>  <DeltaConfidence>  (14) 
default

>  <SMILES>  (14) 
[Ca+2]

>  <NetFormalCharge>  (14) 
2

$$$$

     RDKit          3D

  1  0  0  0  0  0  0  0  0  0999 V2000
    0.0007   -0.0021    0.2774 C   0  0  0  0  0  3  0  0  0  0  0  0
M  CHG  1   1  -1
M  END
>  <LigandName>  (15) 
CH₃⁻

>  <SMILES>  (15) 
[CH3-]

>  <FieldStrength>  (15) 
very strong

>  <Delta_cm-1>  (15) 
31000

>  <DonorAtom>  (15) 
C

>  <Denticity>  (15) 
0

>  <DenticityDescription>  (15) 
non-dentate

>  <MolecularWeight>  (15) 
15.03

>  <HDonors>  (15) 
0

>  <HAcceptors>  (15) 
0

>  <LogP>  (15) 
0.45

>  <NumAtoms>  (15) 
4

>  <NetFormalCharge>  (15) 
-1

$$$$
CL
     RDKit          2D

  1  0  0  0  0  0  0  0  0  0999 V2000
    0.0000    0.0000    0.0000 Cl  0  0  0  0  0  0  0  0  0  0  0  0
M  CHG  1   1  -1
M  END
>  <LigandName>  (16) 
CL

>  <Denticity>  (16) 
1

>  <DenticityDescription>  (16) 
monodentate

>  <Delta_cm-1>  (16) 
12000

>  <DeltaConfidence>  (16) 
estimated

>  <SMILES>  (16) 
[Cl-]

>  <NetFormalCharge>  (16) 
-1

$$$$

     RDKit          3D

  1  0  0  0  0  0  0  0  0  0999 V2000
    4.0000    0.0000    0.0000 Cl  0  0  0  0  0 15  0  0  0  0  0  0
M  CHG  1   1  -1
M  END
>  <LigandName>  (17) 
Cl⁻

>  <SMILES>  (17) 
[Cl-]

>  <FieldStrength>  (17) 
weak

>  <Delta_cm-1>  (17) 
15000

>  <DonorAtom>  (17) 
Cl

>  <Denticity>  (17) 
1

>  <DenticityDescription>  (17) 
monodentate

>  <MolecularWeight>  (17) 
35.45

>  <HDonors>  (17) 
0

>  <HAcceptors>  (17) 
0

>  <LogP>  (17) 
-3.0

>  <NumAtoms>  (17) 
1

>  <NetFormalCharge>  (17) 
-1

$$$$

     RDKit          3D

  2  1  0  0  0  0  0  0  0  0999 V2000
    0.5786    0.0000    0.0000 C   0  0  0  0  0  3  0  0  0  0  0  0
   -0.5786    0.0000    0.0000 N   0  0  0  0  0  0  0  0  0  0  0  0
  1  2  3  0
M  CHG  1   1  -1
M  END
>  <LigandName>  (18) 
CN⁻

>  <SMILES>  (18) 
[C-]#N

>  <FieldStrength>  (18) 
very strong

>  <Delta_cm-1>  (18) 
30000

>  <DonorAtom>  (18) 
C

>  <Denticity>  (18) 
2

>  <DenticityDescription>  (18) 
bidentate

>  <MolecularWeight>  (18) 
26.02

>  <HDonors>  (18) 
0

>  <HAcceptors>  (18) 
1

>  <LogP>  (18) 
0.1

>  <NumAtoms>  (18) 
2

>  <NetFormalCharge>  (18) 
-1

$$$$

     RDKit          3D

  2  1  0  0  0  0  0  0  0  0999 V2000
    0.5641    0.0000    0.0000 C   0  0  0  0  0  3  0  0  0  0  0  0
   -0.5641    0.0000    0.0000 O   0  0  0  0  0  3  0  0  0  0  0  0
  1  2  3  0
M  CHG  2   1  -1   2   1
M  END
>  <LigandName>  (19) 
CO

>  <SMILES>  (19) 
[C-]#[O+]

>  <FieldStrength>  (19) 
very strong

>  <Delta_cm-1>  (19) 
32000

>  <DonorAtom>  (19) 
C

>  <Denticity>  (19) 
2

>  <DenticityDescription>  (19) 
bidentate

>  <MolecularWeight>  (19) 
28.01

>  <HDonors>  (19) 
0

>  <HAcceptors>  (19) 
0

>  <LogP>  (19) 
-0.04

>  <NumAtoms>  (19) 
2

>  <NetFormalCharge>  (19) 
0

$$$$
COA
     RDKit          3D

 48 50  0  0  1  0  0  0  0  0999 V2000
    5.3190    1.8440   -8.0480 N   0  0  0  0  0  0  0  0  0  0  0  0
    4.0990    1.8020   -8.5490 C   0  0  0  0  0  0  0  0  0  0  0  0
    3.0500    1.4650   -7.8290 N   0  0  0  0  0  0  0  0  0  0  0  0
    3.1840    1.1430   -6.5460 C   0  0  0  0  0  0  0  0  0  0  0  0
    4.4630    1.1770   -5.9640 C   0  0  0  0  0  0  0  0  0  0  0  0
    5.5510    1.5430   -6.7740 C   0  0  0  0  0  0  0  0  0  0  0  0
    6.8340    1.5900   -6.2580 N   0  0  0  0  0  0  0  0  0  0  0  0
    4.3200    0.8170   -4.6660 N   0  0  0  0  0  0  0  0  0  0  0  0
    3.0660    0.5750   -4.4190 C   0  0  0  0  0  0  0  0  0  0  0  0
    2.3240    0.7650   -5.5470 N   0  0  0  0  0  0  0  0  0  0  0  0
    0.8740    0.5920   -5.6710 C   0  0  1  0  0  0  0  0  0  0  0  0
    0.5220   -0.8870   -5.9720 C   0  0  2  0  0  0  0  0  0  0  0  0
    0.5740   -1.1480   -7.3760 O   0  0  0  0  0  0  0  0  0  0  0  0
   -0.9330   -0.9880   -5.4450 C   0  0  2  0  0  0  0  0  0  0  0  0
   -1.8640   -0.8460   -6.5190 O   0  0  0  0  0  0  0  0  0  0  0  0
   -2.7560   -2.1860   -6.5420 P   0  0  0  0  0  0  0  0  0  0  0  0
   -3.4630   -2.3310   -5.2500 O   0  0  0  0  0  0  0  0  0  0  0  0
   -3.8330   -2.0940   -7.7350 O   0  0  0  0  0  0  0  0  0  0  0  0
   -1.8020   -3.4620   -6.7770 O   0  0  0  0  0  0  0  0  0  0  0  0
   -1.0550    0.1880   -4.4570 C   0  0  2  0  0  0  0  0  0  0  0  0
    0.2230    0.8430   -4.4070 O   0  0  0  0  0  0  0  0  0  0  0  0
   -1.4260   -0.3350   -3.0680 C   0  0  0  0  0  0  0  0  0  0  0  0
   -1.5300    0.7600   -2.1580 O   0  0  0  0  0  0  0  0  0  0  0  0
   -1.9210    0.1400   -0.7240 P   0  0  2  0  0  0  0  0  0  0  0  0
   -0.8660   -0.8030   -0.2920 O   0  0  0  0  0  0  0  0  0  0  0  0
   -3.3240   -0.6400   -0.8420 O   0  0  0  0  0  0  0  0  0  0  0  0
   -2.0550    1.3260    0.3550 O   0  0  0  0  0  0  0  0  0  0  0  0
   -2.4450    0.6370    1.7570 P   0  0  1  0  0  0  0  0  0  0  0  0
   -3.7270   -0.0870    1.6110 O   0  0  0  0  0  0  0  0  0  0  0  0
   -1.2890   -0.3970    2.1860 O   0  0  0  0  0  0  0  0  0  0  0  0
   -2.5960    1.7720    2.8890 O   0  0  0  0  0  0  0  0  0  0  0  0
   -3.1010    2.1280    5.2250 C   0  0  0  0  0  0  0  0  0  0  0  0
   -2.9410    1.1010    4.1030 C   0  0  0  0  0  0  0  0  0  0  0  0
   -1.7840    2.8840    5.4160 C   0  0  0  0  0  0  0  0  0  0  0  0
   -4.2080    3.1180    4.8570 C   0  0  0  0  0  0  0  0  0  0  0  0
   -3.4700    1.4100    6.5250 C   0  0  1  0  0  0  0  0  0  0  0  0
   -4.7640    0.8190    6.3910 O   0  0  0  0  0  0  0  0  0  0  0  0
   -2.4530    0.3350    6.8110 C   0  0  0  0  0  0  0  0  0  0  0  0
   -2.7580   -0.8320    6.6990 O   0  0  0  0  0  0  0  0  0  0  0  0
   -1.2050    0.6720    7.1910 N   0  0  0  0  0  0  0  0  0  0  0  0
   -0.2400   -0.3700    7.5470 C   0  0  0  0  0  0  0  0  0  0  0  0
    1.0890    0.2750    7.9380 C   0  0  0  0  0  0  0  0  0  0  0  0
    2.0810   -0.7970    8.3050 C   0  0  0  0  0  0  0  0  0  0  0  0
    1.7560   -1.9650    8.2580 O   0  0  0  0  0  0  0  0  0  0  0  0
    3.3290   -0.4600    8.6850 N   0  0  0  0  0  0  0  0  0  0  0  0
    4.2940   -1.5040    9.0410 C   0  0  0  0  0  0  0  0  0  0  0  0
    5.6240   -0.8570    9.4320 C   0  0  0  0  0  0  0  0  0  0  0  0
    6.8180   -2.1500    9.8730 S   0  0  0  0  0  0  0  0  0  0  0  0
  1  2  2  0
  1  6  1  0
  2  3  1  0
  3  4  2  0
  4  5  1  0
  4 10  1  0
  5  6  2  0
  5  8  1  0
  6  7  1  0
  8  9  2  0
  9 10  1  0
 11 10  1  1
 11 12  1  0
 11 21  1  0
 12 13  1  6
 12 14  1  0
 14 15  1  6
 14 20  1  0
 15 16  1  0
 16 17  2  0
 16 18  1  0
 16 19  1  0
 20 21  1  0
 20 22  1  1
 22 23  1  0
 24 23  1  0
 24 25  2  0
 24 26  1  6
 24 27  1  0
 28 27  1  0
 28 29  2  0
 28 30  1  1
 28 31  1  0
 31 33  1  0
 32 33  1  0
 32 34  1  0
 32 35  1  0
 32 36  1  0
 36 37  1  6
 36 38  1  0
 38 39  2  0
 38 40  1  0
 40 41  1  0
 41 42  1  0
 42 43  1  0
 43 44  2  0
 43 45  1  0
 45 46  1  0
 46 47  1  0
 47 48  1  0
M  END
>  <LigandName>  (20) 
COA

>  <Denticity>  (20) 
14

>  <DenticityDescription>  (20) 
14-dentate

>  <Delta_cm-1>  (20) 
23071

>  <DeltaConfidence>  (20) 
estimated

>  <SMILES>  (20) 
[H]O[C@]1([H])[C@]([H])(OP(=O)(O[H])O[H])[C@@]([H])(C([H])([H])O[P@](=O)(O[H])O[P@@](=O)(O[H])OC([H])([H])C(C([H])([H])[H])(C([H])([H])[H])[C@@]([H])(O[H])C(=O)N([H])C([H])([H])C([H])([H])C(=O)N([H])C([H])([H])C([H])([H])S[H])O[C@@]1([H])n1c([H])nc2c(N([H])[H])nc([H])nc21

>  <NetFormalCharge>  (20) 
0

$$$$
CS
     RDKit          2D

  1  0  0  0  0  0  0  0  0  0999 V2000
    0.0000    0.0000    0.0000 Cs  0  0  0  0  0 15  0  0  0  0  0  0
M  CHG  1   1   1
M  END
>  <LigandName>  (21) 
CS

>  <Denticity>  (21) 
0

>  <DenticityDescription>  (21) 
non-dentate

>  <Delta_cm-1>  (21) 
20000

>  <DeltaConfidence>  (21) 
default

>  <SMILES>  (21) 
[Cs+]

>  <NetFormalCharge>  (21) 
1

$$$$
CU
     RDKit          2D

  1  0  0  0  0  0  0  0  0  0999 V2000
    0.0000    0.0000    0.0000 Cu  0  0  0  0  0 15  0  0  0  0  0  0
M  CHG  1   1   2
M  END
>  <LigandName>  (22) 
CU

>  <Denticity>  (22) 
0

>  <DenticityDescription>  (22) 
non-dentate

>  <Delta_cm-1>  (22) 
20000

>  <DeltaConfidence>  (22) 
default

>  <SMILES>  (22) 
[Cu+2]

>  <NetFormalCharge>  (22) 
2

$$$$

     RDKit          3D

  5  4  0  0  0  0  0  0  0  0999 V2000
   -1.0513   -0.8429   -0.4039 C   0  0  0  0  0  0  0  0  0  0  0  0
    0.0922   -0.0464    0.0480 N   0  0  0  0  0  0  0  0  0  0  0  0
    0.1067    1.4095   -0.0974 C   0  0  0  0  0  0  0  0  0  0  0  0
    1.2267   -0.6894    0.6462 C   0  0  0  0  0  0  0  0  0  0  0  0
    1.2573   -1.9406    0.7914 O   0  0  0  0  0  0  0  0  0  0  0  0
  1  2  1  0
  2  3  1  0
  2  4  1  0
  4  5  2  0
M  END
>  <LigandName>  (23) 
DMF

>  <SMILES>  (23) 
CN(C)C=O

>  <FieldStrength>  (23) 
moderate-strong

>  <Delta_cm-1>  (23) 
22000

>  <DonorAtom>  (23) 
O

>  <Denticity>  (23) 
0

>  <DenticityDescription>  (23) 
non-dentate

>  <MolecularWeight>  (23) 
73.09

>  <HDonors>  (23) 
0

>  <HAcceptors>  (23) 
1

>  <LogP>  (23) 
-0.3

>  <NumAtoms>  (23) 
12

>  <NetFormalCharge>  (23) 
0

$$$$
DMS
     RDKit          3D

  4  3  0  0  0  0  0  0  0  0999 V2000
    0.1540   -0.3710    0.0000 S   0  0  0  0  0  0  0  0  0  0  0  0
    1.3900    0.3310    0.0010 O   0  0  0  0  0  0  0  0  0  0  0  0
   -0.8640    0.1960    1.3890 C   0  0  0  0  0  0  0  0  0  0  0  0
   -0.8620    0.1960   -1.3900 C   0  0  0  0  0  0  0  0  0  0  0  0
  1  2  2  0
  1  3  1  0
  1  4  1  0
M  END
>  <LigandName>  (24) 
DMS

>  <Denticity>  (24) 
2

>  <DenticityDescription>  (24) 
bidentate

>  <Delta_cm-1>  (24) 
18000

>  <DeltaConfidence>  (24) 
estimated

>  <SMILES>  (24) 
[H]C([H])([H])S(=O)C([H])([H])[H]

>  <NetFormalCharge>  (24) 
0

$$$$

     RDKit          3D

  4  3  0  0  0  0  0  0  0  0999 V2000
   -1.4191   -0.1084    0.0443 C   0  0  0  0  0  0  0  0  0  0  0  0
    0.1457    0.5280    0.6708 S   0  0  0  0  0  4  0  0  0  0  0  0
    0.1698    1.9677    0.1753 O   0  0  0  0  0  0  0  0  0  0  0  0
    1.3896   -0.2893   -0.3446 C   0  0  0  0  0  0  0  0  0  0  0  0
  1  2  1  0
  2  3  2  0
  2  4  1  0
M  END
>  <LigandName>  (25) 
DMSO

>  <SMILES>  (25) 
CS(=O)C

>  <FieldStrength>  (25) 
moderate

>  <Delta_cm-1>  (25) 
21000

>  <DonorAtom>  (25) 
S

>  <Denticity>  (25) 
2

>  <DenticityDescription>  (25) 
bidentate

>  <MolecularWeight>  (25) 
78.14

>  <HDonors>  (25) 
0

>  <HAcceptors>  (25) 
1

>  <LogP>  (25) 
-0.01

>  <NumAtoms>  (25) 
10

>  <NetFormalCharge>  (25) 
0

$$$$
EDO
     RDKit          3D

  4  3  0  0  0  0  0  0  0  0999 V2000
   -0.6090   -0.2820    0.7100 C   0  0  0  0  0  0  0  0  0  0  0  0
    0.5570    0.1670    1.4020 O   0  0  0  0  0  0  0  0  0  0  0  0
   -0.6090    0.2820   -0.7100 C   0  0  0  0  0  0  0  0  0  0  0  0
    0.5570   -0.1670   -1.4020 O   0  0  0  0  0  0  0  0  0  0  0  0
  1  2  1  0
  1  3  1  0
  3  4  1  0
M  END
>  <LigandName>  (26) 
EDO

>  <Denticity>  (26) 
2

>  <DenticityDescription>  (26) 
bidentate

>  <Delta_cm-1>  (26) 
20000

>  <DeltaConfidence>  (26) 
estimated

>  <SMILES>  (26) 
[H]OC([H])([H])C([H])([H])O[H]

>  <NetFormalCharge>  (26) 
0

$$$$

     RDKit          3D

  4  3  0  0  0  0  0  0  0  0999 V2000
    1.3772    0.7676    0.1229 N   0  0  0  0  0  0  0  0  0  0  0  0
    0.7348   -0.5359   -0.0188 C   0  0  0  0  0  0  0  0  0  0  0  0
   -0.7776   -0.4208    0.1835 C   0  0  0  0  0  0  0  0  0  0  0  0
   -1.3793    0.3847   -0.8756 N   0  0  0  0  0  0  0  0  0  0  0  0
  1  2  1  0
  2  3  1  0
  3  4  1  0
M  END
>  <LigandName>  (27) 
en

>  <SMILES>  (27) 
NCCN

>  <FieldStrength>  (27) 
moderate-strong

>  <Delta_cm-1>  (27) 
25000

>  <DonorAtom>  (27) 
N,N

>  <Denticity>  (27) 
2

>  <DenticityDescription>  (27) 
bidentate

>  <MolecularWeight>  (27) 
60.1

>  <HDonors>  (27) 
2

>  <HAcceptors>  (27) 
2

>  <LogP>  (27) 
-1.1

>  <NumAtoms>  (27) 
12

>  <NetFormalCharge>  (27) 
0

$$$$

     RDKit          3D

  3  2  0  0  0  0  0  0  0  0999 V2000
   -0.9055   -0.1888   -0.0856 C   0  0  0  0  0  0  0  0  0  0  0  0
    0.4498    0.4758    0.1226 C   0  0  0  0  0  0  0  0  0  0  0  0
    1.4508   -0.2359   -0.5525 O   0  0  0  0  0  0  0  0  0  0  0  0
  1  2  1  0
  2  3  1  0
M  END
>  <LigandName>  (28) 
EtOH

>  <SMILES>  (28) 
CCO

>  <FieldStrength>  (28) 
moderate

>  <Delta_cm-1>  (28) 
20000

>  <DonorAtom>  (28) 
O

>  <Denticity>  (28) 
1

>  <DenticityDescription>  (28) 
monodentate

>  <MolecularWeight>  (28) 
46.07

>  <HDonors>  (28) 
1

>  <HAcceptors>  (28) 
1

>  <LogP>  (28) 
-0.0

>  <NumAtoms>  (28) 
9

>  <NetFormalCharge>  (28) 
0

$$$$
FAD
     RDKit          3D

 53 58  0  0  1  0  0  0  0  0999 V2000
   -1.6480   -0.6290   -3.2290 P   0  0  1  0  0  0  0  0  0  0  0  0
   -3.0350   -1.0880   -2.9920 O   0  0  0  0  0  0  0  0  0  0  0  0
   -0.6780   -1.9060   -3.3780 O   0  0  0  0  0  0  0  0  0  0  0  0
   -1.5950    0.2450   -4.5800 O   0  0  0  0  0  0  0  0  0  0  0  0
   -2.0360   -0.6050   -5.6400 C   0  0  0  0  0  0  0  0  0  0  0  0
   -2.0090    0.1690   -6.9590 C   0  0  1  0  0  0  0  0  0  0  0  0
   -0.6650    0.5830   -7.2560 O   0  0  0  0  0  0  0  0  0  0  0  0
   -2.4760   -0.7410   -8.1110 C   0  0  1  0  0  0  0  0  0  0  0  0
   -3.6390   -0.2030   -8.7440 O   0  0  0  0  0  0  0  0  0  0  0  0
   -1.2770   -0.7480   -9.0950 C   0  0  1  0  0  0  0  0  0  0  0  0
   -1.7280   -0.6720  -10.4490 O   0  0  0  0  0  0  0  0  0  0  0  0
   -0.5180    0.5410   -8.6920 C   0  0  2  0  0  0  0  0  0  0  0  0
    0.8950    0.4490   -9.0630 N   0  0  0  0  0  0  0  0  0  0  0  0
    1.8890   -0.1180   -8.3220 C   0  0  0  0  0  0  0  0  0  0  0  0
    3.0230   -0.0240   -8.9530 N   0  0  0  0  0  0  0  0  0  0  0  0
    2.8300    0.6060  -10.1360 C   0  0  0  0  0  0  0  0  0  0  0  0
    3.6630    0.9790  -11.2050 C   0  0  0  0  0  0  0  0  0  0  0  0
    5.0180    0.6980  -11.1780 N   0  0  0  0  0  0  0  0  0  0  0  0
    3.1190    1.6070  -12.2420 N   0  0  0  0  0  0  0  0  0  0  0  0
    1.8270    1.8780  -12.2770 C   0  0  0  0  0  0  0  0  0  0  0  0
    1.0100    1.5490  -11.2990 N   0  0  0  0  0  0  0  0  0  0  0  0
    1.4620    0.9140  -10.2230 C   0  0  0  0  0  0  0  0  0  0  0  0
   -1.9330    0.3600    8.3210 N   0  0  0  0  0  0  0  0  0  0  0  0
   -2.8020    1.0330    9.0700 C   0  0  0  0  0  0  0  0  0  0  0  0
   -3.9700    1.0430    8.7210 O   0  0  0  0  0  0  0  0  0  0  0  0
   -2.4740    1.7010   10.1850 N   0  0  0  0  0  0  0  0  0  0  0  0
   -1.1970    1.7340   10.6340 C   0  0  0  0  0  0  0  0  0  0  0  0
   -0.8970    2.3400   11.6440 O   0  0  0  0  0  0  0  0  0  0  0  0
   -0.1840    1.0030    9.8420 C   0  0  0  0  0  0  0  0  0  0  0  0
    1.0780    0.9680   10.1850 N   0  0  0  0  0  0  0  0  0  0  0  0
    1.9690    0.2950    9.4460 C   0  0  0  0  0  0  0  0  0  0  0  0
    3.3240    0.2700    9.8330 C   0  0  0  0  0  0  0  0  0  0  0  0
    4.2320   -0.4120    9.0820 C   0  0  0  0  0  0  0  0  0  0  0  0
    5.6790   -0.4340    9.5020 C   0  0  0  0  0  0  0  0  0  0  0  0
    3.8410   -1.0850    7.9300 C   0  0  0  0  0  0  0  0  0  0  0  0
    4.8660   -1.8320    7.1160 C   0  0  0  0  0  0  0  0  0  0  0  0
    2.5230   -1.0820    7.5290 C   0  0  0  0  0  0  0  0  0  0  0  0
    1.5720   -0.3930    8.2780 C   0  0  0  0  0  0  0  0  0  0  0  0
    0.2530   -0.3820    7.8770 N   0  0  0  0  0  0  0  0  0  0  0  0
   -0.6490    0.3010    8.6340 C   0  0  0  0  0  0  0  0  0  0  0  0
   -0.1680   -1.0930    6.6680 C   0  0  0  0  0  0  0  0  0  0  0  0
   -0.0700   -0.1530    5.4640 C   0  0  2  0  0  0  0  0  0  0  0  0
   -0.9190    0.9770    5.6730 O   0  0  0  0  0  0  0  0  0  0  0  0
   -0.5110   -0.8950    4.2010 C   0  0  2  0  0  0  0  0  0  0  0  0
    0.3370   -2.0260    3.9920 O   0  0  0  0  0  0  0  0  0  0  0  0
   -0.4130    0.0440    2.9970 C   0  0  2  0  0  0  0  0  0  0  0  0
   -1.2620    1.1740    3.2060 O   0  0  0  0  0  0  0  0  0  0  0  0
   -0.8540   -0.6970    1.7340 C   0  0  0  0  0  0  0  0  0  0  0  0
   -0.7630    0.1790    0.6100 O   0  0  0  0  0  0  0  0  0  0  0  0
   -1.2390   -0.6620   -0.6770 P   0  0  1  0  0  0  0  0  0  0  0  0
   -0.3540   -1.8350   -0.8530 O   0  0  0  0  0  0  0  0  0  0  0  0
   -2.7540   -1.1600   -0.4620 O   0  0  0  0  0  0  0  0  0  0  0  0
   -1.1610    0.2700   -1.9870 O   0  0  0  0  0  0  0  0  0  0  0  0
  1  2  2  0
  1  3  1  6
  1  4  1  0
  1 53  1  0
  4  5  1  0
  6  5  1  1
  6  7  1  0
  6  8  1  0
  7 12  1  0
  8  9  1  6
  8 10  1  0
 10 11  1  6
 10 12  1  0
 12 13  1  1
 13 14  1  0
 13 22  1  0
 14 15  2  0
 15 16  1  0
 16 17  1  0
 16 22  2  0
 17 18  1  0
 17 19  2  0
 19 20  1  0
 20 21  2  0
 21 22  1  0
 23 24  1  0
 23 40  2  0
 24 25  2  0
 24 26  1  0
 26 27  1  0
 27 28  2  0
 27 29  1  0
 29 30  2  0
 29 40  1  0
 30 31  1  0
 31 32  1  0
 31 38  2  0
 32 33  2  0
 33 34  1  0
 33 35  1  0
 35 36  1  0
 35 37  2  0
 37 38  1  0
 38 39  1  0
 39 40  1  0
 39 41  1  0
 41 42  1  0
 42 43  1  1
 42 44  1  0
 44 45  1  6
 44 46  1  0
 46 47  1  1
 46 48  1  0
 48 49  1  0
 50 49  1  0
 50 51  2  0
 50 52  1  1
 50 53  1  0
M  END
>  <LigandName>  (29) 
FAD

>  <Denticity>  (29) 
18

>  <DenticityDescription>  (29) 
18-dentate

>  <Delta_cm-1>  (29) 
22833

>  <DeltaConfidence>  (29) 
estimated

>  <SMILES>  (29) 
[H]O[C@@]1([H])[C@@]([H])(O[H])[C@]([H])(n2c([H])nc3c(N([H])[H])nc([H])nc32)O[C@]1([H])C([H])([H])O[P@@](=O)(O[H])O[P@](=O)(O[H])OC([H])([H])[C@@]([H])(O[H])[C@@]([H])(O[H])[C@@]([H])(O[H])C([H])([H])n1c2nc(=O)n([H])c(=O)c-2nc2c([H])c(C([H])([H])[H])c(C([H])([H])[H])c([H])c21

>  <NetFormalCharge>  (29) 
0

$$$$
FE
     RDKit          2D

  1  0  0  0  0  0  0  0  0  0999 V2000
    0.0000    0.0000    0.0000 Fe  0  0  0  0  0 15  0  0  0  0  0  0
M  CHG  1   1   3
M  END
>  <LigandName>  (30) 
FE

>  <Denticity>  (30) 
0

>  <DenticityDescription>  (30) 
non-dentate

>  <Delta_cm-1>  (30) 
20000

>  <DeltaConfidence>  (30) 
default

>  <SMILES>  (30) 
[Fe+3]

>  <NetFormalCharge>  (30) 
3

$$$$

     RDKit          3D

  1  0  0  0  0  0  0  0  0  0999 V2000
    4.0000    0.0000    0.0000 F   0  0  0  0  0 15  0  0  0  0  0  0
M  CHG  1   1  -1
M  END
>  <LigandName>  (31) 
F⁻

>  <SMILES>  (31) 
[F-]

>  <FieldStrength>  (31) 
weak

>  <Delta_cm-1>  (31) 
18000

>  <DonorAtom>  (31) 
F

>  <Denticity>  (31) 
0

>  <DenticityDescription>  (31) 
non-dentate

>  <MolecularWeight>  (31) 
19.0

>  <HDonors>  (31) 
0

>  <HAcceptors>  (31) 
0

>  <LogP>  (31) 
-3.0

>  <NumAtoms>  (31) 
1

>  <NetFormalCharge>  (31) 
-1

$$$$
FMN
     RDKit          3D

 31 33  0  0  1  0  0  0  0  0999 V2000
    2.1180   -2.4930    0.5310 N   0  0  0  0  0  0  0  0  0  0  0  0
    2.7130   -3.6380    0.2060 C   0  0  0  0  0  0  0  0  0  0  0  0
    2.1220   -4.6770    0.4450 O   0  0  0  0  0  0  0  0  0  0  0  0
    3.9210   -3.7210   -0.3680 N   0  0  0  0  0  0  0  0  0  0  0  0
    4.6360   -2.6100   -0.6640 C   0  0  0  0  0  0  0  0  0  0  0  0
    5.7320   -2.6820   -1.1850 O   0  0  0  0  0  0  0  0  0  0  0  0
    4.0270   -1.3050   -0.3250 C   0  0  0  0  0  0  0  0  0  0  0  0
    4.6310   -0.1700   -0.5660 N   0  0  0  0  0  0  0  0  0  0  0  0
    4.0510    0.9950   -0.2460 C   0  0  0  0  0  0  0  0  0  0  0  0
    4.7180    2.2060   -0.5140 C   0  0  0  0  0  0  0  0  0  0  0  0
    4.1310    3.3920   -0.1900 C   0  0  0  0  0  0  0  0  0  0  0  0
    4.8500    4.6830   -0.4800 C   0  0  0  0  0  0  0  0  0  0  0  0
    2.8740    3.4230    0.4050 C   0  0  0  0  0  0  0  0  0  0  0  0
    2.2460    4.7480    0.7520 C   0  0  0  0  0  0  0  0  0  0  0  0
    2.1970    2.2550    0.6780 C   0  0  0  0  0  0  0  0  0  0  0  0
    2.7740    1.0290    0.3590 C   0  0  0  0  0  0  0  0  0  0  0  0
    2.1010   -0.1440    0.6310 N   0  0  0  0  0  0  0  0  0  0  0  0
    2.6950   -1.3250    0.3040 C   0  0  0  0  0  0  0  0  0  0  0  0
    0.7770   -0.1190    1.2580 C   0  0  0  0  0  0  0  0  0  0  0  0
   -0.3000   -0.0600    0.1730 C   0  0  2  0  0  0  0  0  0  0  0  0
   -0.1220    1.1210   -0.6110 O   0  0  0  0  0  0  0  0  0  0  0  0
   -1.6830   -0.0350    0.8270 C   0  0  2  0  0  0  0  0  0  0  0  0
   -1.8600   -1.2170    1.6110 O   0  0  0  0  0  0  0  0  0  0  0  0
   -2.7600    0.0240   -0.2580 C   0  0  2  0  0  0  0  0  0  0  0  0
   -2.5820    1.2060   -1.0420 O   0  0  0  0  0  0  0  0  0  0  0  0
   -4.1420    0.0490    0.3970 C   0  0  0  0  0  0  0  0  0  0  0  0
   -5.1490   -0.0130   -0.6150 O   0  0  0  0  0  0  0  0  0  0  0  0
   -6.7250   -0.0070   -0.2850 P   0  0  0  0  0  0  0  0  0  0  0  0
   -7.0530    1.1800    0.5360 O   0  0  0  0  0  0  0  0  0  0  0  0
   -7.5610    0.0450   -1.6600 O   0  0  0  0  0  0  0  0  0  0  0  0
   -7.1090   -1.3440    0.5260 O   0  0  0  0  0  0  0  0  0  0  0  0
  1  2  1  0
  1 18  2  0
  2  3  2  0
  2  4  1  0
  4  5  1  0
  5  6  2  0
  5  7  1  0
  7  8  2  0
  7 18  1  0
  8  9  1  0
  9 10  1  0
  9 16  2  0
 10 11  2  0
 11 12  1  0
 11 13  1  0
 13 14  1  0
 13 15  2  0
 15 16  1  0
 16 17  1  0
 17 18  1  0
 17 19  1  0
 19 20  1  0
 20 21  1  1
 20 22  1  0
 22 23  1  6
 22 24  1  0
 24 25  1  1
 24 26  1  0
 26 27  1  0
 27 28  1  0
 28 29  2  0
 28 30  1  0
 28 31  1  0
M  END
>  <LigandName>  (32) 
FMN

>  <Denticity>  (32) 
10

>  <DenticityDescription>  (32) 
10-dentate

>  <Delta_cm-1>  (32) 
22400

>  <DeltaConfidence>  (32) 
estimated

>  <SMILES>  (32) 
[H]O[C@@]([H])([C@@]([H])(O[H])C([H])([H])n1c2nc(=O)n([H])c(=O)c-2nc2c([H])c(C([H])([H])[H])c(C([H])([H])[H])c([H])c21)[C@]([H])(O[H])C([H])([H])OP(=O)(O[H])O[H]

>  <NetFormalCharge>  (32) 
0

$$$$

     RDKit          3D

  3  2  0  0  0  0  0  0  0  0999 V2000
   -0.0345    0.0483    0.0406 C   0  0  0  0  0  0  0  0  0  0  0  0
   -1.0295   -0.7000    0.2208 O   0  0  0  0  0  0  0  0  0  0  0  0
    1.2218   -0.3508    0.4754 O   0  0  0  0  0  1  0  0  0  0  0  0
  1  2  2  0
  1  3  1  0
M  CHG  1   3  -1
M  END
>  <LigandName>  (33) 
Formate

>  <SMILES>  (33) 
C(=O)[O-]

>  <FieldStrength>  (33) 
moderate

>  <Delta_cm-1>  (33) 
20000

>  <DonorAtom>  (33) 
O

>  <Denticity>  (33) 
3

>  <DenticityDescription>  (33) 
tridentate

>  <MolecularWeight>  (33) 
45.02

>  <HDonors>  (33) 
0

>  <HAcceptors>  (33) 
2

>  <LogP>  (33) 
-1.63

>  <NumAtoms>  (33) 
4

>  <NetFormalCharge>  (33) 
-1

$$$$
FUC
     RDKit          3D

 11 11  0  0  1  0  0  0  0  0999 V2000
    1.4100    0.4680   -0.4100 C   0  0  2  0  0  0  0  0  0  0  0  0
    0.1200    0.5130   -1.2330 C   0  0  2  0  0  0  0  0  0  0  0  0
   -0.8310   -0.5760   -0.7280 C   0  0  1  0  0  0  0  0  0  0  0  0
   -1.0160   -0.4020    0.7830 C   0  0  1  0  0  0  0  0  0  0  0  0
    0.3590   -0.3790    1.4540 C   0  0  2  0  0  0  0  0  0  0  0  0
    0.1850   -0.2410    2.9670 C   0  0  0  0  0  0  0  0  0  0  0  0
    2.0070   -0.8230   -0.5350 O   0  0  0  0  0  0  0  0  0  0  0  0
    0.4240    0.2840   -2.6100 O   0  0  0  0  0  0  0  0  0  0  0  0
   -2.0940   -0.4520   -1.3850 O   0  0  0  0  0  0  0  0  0  0  0  0
   -1.7000    0.8240    1.0440 O   0  0  0  0  0  0  0  0  0  0  0  0
    1.1160    0.7240    0.9610 O   0  0  0  0  0  0  0  0  0  0  0  0
  1  2  1  0
  1  7  1  1
  1 11  1  0
  2  3  1  0
  2  8  1  6
  3  4  1  0
  3  9  1  6
  4  5  1  0
  4 10  1  6
  5  6  1  1
  5 11  1  0
M  END
>  <LigandName>  (34) 
FUC

>  <Denticity>  (34) 
4

>  <DenticityDescription>  (34) 
tetradentate

>  <Delta_cm-1>  (34) 
20000

>  <DeltaConfidence>  (34) 
estimated

>  <SMILES>  (34) 
[H]O[C@]1([H])O[C@@]([H])(C([H])([H])[H])[C@@]([H])(O[H])[C@@]([H])(O[H])[C@]1([H])O[H]

>  <NetFormalCharge>  (34) 
0

$$$$
GAL
     RDKit          3D

 12 12  0  0  1  0  0  0  0  0999 V2000
    0.5160    1.4090   -0.1910 C   0  0  2  0  0  0  0  0  0  0  0  0
    1.5220    0.3020    0.1360 C   0  0  1  0  0  0  0  0  0  0  0  0
    1.1030   -0.9860   -0.5780 C   0  0  2  0  0  0  0  0  0  0  0  0
   -0.3220   -1.3520   -0.1520 C   0  0  2  0  0  0  0  0  0  0  0  0
   -1.2580   -0.1820   -0.4680 C   0  0  1  0  0  0  0  0  0  0  0  0
   -2.6720   -0.5160    0.0090 C   0  0  0  0  0  0  0  0  0  0  0  0
    0.8700    2.5990    0.5170 O   0  0  0  0  0  0  0  0  0  0  0  0
    2.8230    0.6930   -0.3080 O   0  0  0  0  0  0  0  0  0  0  0  0
    1.9950   -2.0440   -0.2200 O   0  0  0  0  0  0  0  0  0  0  0  0
   -0.3480   -1.6180    1.2510 O   0  0  0  0  0  0  0  0  0  0  0  0
   -0.7930    0.9920    0.2020 O   0  0  0  0  0  0  0  0  0  0  0  0
   -3.5670    0.5250   -0.3890 O   0  0  0  0  0  0  0  0  0  0  0  0
  1  2  1  0
  1  7  1  1
  1 11  1  0
  2  3  1  0
  2  8  1  6
  3  4  1  0
  3  9  1  1
  4  5  1  0
  4 10  1  1
  5  6  1  1
  5 11  1  0
  6 12  1  0
M  END
>  <LigandName>  (35) 
GAL

>  <Denticity>  (35) 
5

>  <DenticityDescription>  (35) 
pentadentate

>  <Delta_cm-1>  (35) 
20000

>  <DeltaConfidence>  (35) 
estimated

>  <SMILES>  (35) 
[H]OC([H])([H])[C@@]1([H])O[C@@]([H])(O[H])[C@]([H])(O[H])[C@@]([H])(O[H])[C@@]1([H])O[H]

>  <NetFormalCharge>  (35) 
0

$$$$
GDP
     RDKit          3D

 28 30  0  0  1  0  0  0  0  0999 V2000
   -5.7430   -1.4710    0.4750 P   0  0  0  0  0  0  0  0  0  0  0  0
   -6.8290   -0.8310   -0.3000 O   0  0  0  0  0  0  0  0  0  0  0  0
   -6.2930   -1.8850    1.9300 O   0  0  0  0  0  0  0  0  0  0  0  0
   -5.2340   -2.7870   -0.3010 O   0  0  0  0  0  0  0  0  0  0  0  0
   -4.5190   -0.4380    0.6380 O   0  0  0  0  0  0  0  0  0  0  0  0
   -3.8210    0.6330   -0.3400 P   0  0  1  0  0  0  0  0  0  0  0  0
   -3.7180    0.0630   -1.7020 O   0  0  0  0  0  0  0  0  0  0  0  0
   -4.7080    1.9760   -0.3860 O   0  0  0  0  0  0  0  0  0  0  0  0
   -2.3480    0.9810    0.2080 O   0  0  0  0  0  0  0  0  0  0  0  0
   -1.4340    1.8230   -0.4970 C   0  0  0  0  0  0  0  0  0  0  0  0
   -0.1330    1.9430    0.2990 C   0  0  1  0  0  0  0  0  0  0  0  0
    0.5330    0.6700    0.3440 O   0  0  0  0  0  0  0  0  0  0  0  0
    0.8200    2.9330   -0.3990 C   0  0  1  0  0  0  0  0  0  0  0  0
    1.1250    4.0280    0.4670 O   0  0  0  0  0  0  0  0  0  0  0  0
    2.0910    2.0980   -0.6860 C   0  0  1  0  0  0  0  0  0  0  0  0
    3.2710    2.8610   -0.4280 O   0  0  0  0  0  0  0  0  0  0  0  0
    1.9520    0.9350    0.3290 C   0  0  2  0  0  0  0  0  0  0  0  0
    2.6910   -0.2430   -0.1320 N   0  0  0  0  0  0  0  0  0  0  0  0
    2.2000   -1.2520   -0.9080 C   0  0  0  0  0  0  0  0  0  0  0  0
    3.1310   -2.1340   -1.1250 N   0  0  0  0  0  0  0  0  0  0  0  0
    4.2720   -1.7460   -0.5040 C   0  0  0  0  0  0  0  0  0  0  0  0
    5.5710   -2.2950   -0.3960 C   0  0  0  0  0  0  0  0  0  0  0  0
    5.8500   -3.3500   -0.9390 O   0  0  0  0  0  0  0  0  0  0  0  0
    6.4950   -1.6200    0.3240 N   0  0  0  0  0  0  0  0  0  0  0  0
    6.1710   -0.4410    0.9270 C   0  0  0  0  0  0  0  0  0  0  0  0
    7.1300    0.2220    1.6510 N   0  0  0  0  0  0  0  0  0  0  0  0
    4.9680    0.0790    0.8340 N   0  0  0  0  0  0  0  0  0  0  0  0
    4.0030   -0.5290    0.1330 C   0  0  0  0  0  0  0  0  0  0  0  0
  1  2  2  0
  1  3  1  0
  1  4  1  0
  1  5  1  0
  6  5  1  0
  6  7  2  0
  6  8  1  6
  6  9  1  0
  9 10  1  0
 11 10  1  6
 11 12  1  0
 11 13  1  0
 12 17  1  0
 13 14  1  1
 13 15  1  0
 15 16  1  1
 15 17  1  0
 17 18  1  6
 18 19  1  0
 18 28  1  0
 19 20  2  0
 20 21  1  0
 21 22  1  0
 21 28  2  0
 22 23  2  0
 22 24  1  0
 24 25  1  0
 25 26  1  0
 25 27  2  0
 27 28  1  0
M  END
>  <LigandName>  (36) 
GDP

>  <Denticity>  (36) 
12

>  <DenticityDescription>  (36) 
12-dentate

>  <Delta_cm-1>  (36) 
22916

>  <DeltaConfidence>  (36) 
estimated

>  <SMILES>  (36) 
[H]O[C@@]1([H])[C@@]([H])(O[H])[C@]([H])(n2c([H])nc3c(=O)n([H])c(N([H])[H])nc32)O[C@]1([H])C([H])([H])O[P@](=O)(O[H])OP(=O)(O[H])O[H]

>  <NetFormalCharge>  (36) 
0

$$$$
GLC
     RDKit          3D

 12 12  0  0  1  0  0  0  0  0999 V2000
   -0.5670    1.5720   -0.2450 C   0  0  1  0  0  0  0  0  0  0  0  0
   -1.5780    0.4650   -0.5540 C   0  0  1  0  0  0  0  0  0  0  0  0
   -1.1790   -0.8060    0.2030 C   0  0  2  0  0  0  0  0  0  0  0  0
    0.2490   -1.1950   -0.1920 C   0  0  1  0  0  0  0  0  0  0  0  0
    1.1890   -0.0240    0.1020 C   0  0  1  0  0  0  0  0  0  0  0  0
    2.6070   -0.3830   -0.3450 C   0  0  0  0  0  0  0  0  0  0  0  0
   -0.6000    1.8710    1.1510 O   0  0  0  0  0  0  0  0  0  0  0  0
   -2.8810    0.8790   -0.1390 O   0  0  0  0  0  0  0  0  0  0  0  0
   -2.0750   -1.8660   -0.1370 O   0  0  0  0  0  0  0  0  0  0  0  0
    0.6580   -2.3380    0.5620 O   0  0  0  0  0  0  0  0  0  0  0  0
    0.7440    1.1330   -0.6080 O   0  0  0  0  0  0  0  0  0  0  0  0
    3.5060    0.6610    0.0350 O   0  0  0  0  0  0  0  0  0  0  0  0
  1  2  1  0
  1  7  1  1
  1 11  1  0
  2  3  1  0
  2  8  1  1
  3  4  1  0
  3  9  1  6
  4  5  1  0
  4 10  1  1
  5  6  1  6
  5 11  1  0
  6 12  1  0
M  END
>  <LigandName>  (37) 
GLC

>  <Denticity>  (37) 
5

>  <DenticityDescription>  (37) 
pentadentate

>  <Delta_cm-1>  (37) 
20000

>  <DeltaConfidence>  (37) 
estimated

>  <SMILES>  (37) 
[H]OC([H])([H])[C@@]1([H])O[C@]([H])(O[H])[C@]([H])(O[H])[C@@]([H])(O[H])[C@]1([H])O[H]

>  <NetFormalCharge>  (37) 
0

$$$$
GMP
     RDKit          3D

 20 22  0  0  1  0  0  0  0  0999 V2000
    4.7970    1.9170    0.9370 O   0  0  0  0  0  0  0  0  0  0  0  0
    4.4600    0.9830   -0.0920 C   0  0  0  0  0  0  0  0  0  0  0  0
    3.3860    0.0230    0.4230 C   0  0  1  0  0  0  0  0  0  0  0  0
    2.1610    0.7380    0.6550 O   0  0  0  0  0  0  0  0  0  0  0  0
    3.0930   -1.0540   -0.6400 C   0  0  1  0  0  0  0  0  0  0  0  0
    3.3710   -2.3560   -0.1230 O   0  0  0  0  0  0  0  0  0  0  0  0
    1.5810   -0.8970   -0.9320 C   0  0  1  0  0  0  0  0  0  0  0  0
    0.9520   -2.1740   -1.0650 O   0  0  0  0  0  0  0  0  0  0  0  0
    1.0790   -0.1640    0.3380 C   0  0  2  0  0  0  0  0  0  0  0  0
   -0.1480    0.5830    0.0510 N   0  0  0  0  0  0  0  0  0  0  0  0
   -0.2240    1.8790   -0.3700 C   0  0  0  0  0  0  0  0  0  0  0  0
   -1.4700    2.2190   -0.5260 N   0  0  0  0  0  0  0  0  0  0  0  0
   -2.2650    1.1660   -0.2160 C   0  0  0  0  0  0  0  0  0  0  0  0
   -3.6640    0.9580   -0.2020 C   0  0  0  0  0  0  0  0  0  0  0  0
   -4.4320    1.8510   -0.5190 O   0  0  0  0  0  0  0  0  0  0  0  0
   -4.1290   -0.2540    0.1710 N   0  0  0  0  0  0  0  0  0  0  0  0
   -3.2620   -1.2450    0.5240 C   0  0  0  0  0  0  0  0  0  0  0  0
   -3.7630   -2.4670    0.8990 N   0  0  0  0  0  0  0  0  0  0  0  0
   -1.9610   -1.0650    0.5150 N   0  0  0  0  0  0  0  0  0  0  0  0
   -1.4270    0.1070    0.1510 C   0  0  0  0  0  0  0  0  0  0  0  0
  1  2  1  0
  3  2  1  6
  3  4  1  0
  3  5  1  0
  4  9  1  0
  5  6  1  1
  5  7  1  0
  7  8  1  1
  7  9  1  0
  9 10  1  6
 10 11  1  0
 10 20  1  0
 11 12  2  0
 12 13  1  0
 13 14  1  0
 13 20  2  0
 14 15  2  0
 14 16  1  0
 16 17  1  0
 17 18  1  0
 17 19  2  0
 19 20  1  0
M  END
>  <LigandName>  (38) 
GMP

>  <Denticity>  (38) 
8

>  <DenticityDescription>  (38) 
8-dentate

>  <Delta_cm-1>  (38) 
22375

>  <DeltaConfidence>  (38) 
estimated

>  <SMILES>  (38) 
[H]OC([H])([H])[C@@]1([H])O[C@@]([H])(n2c([H])nc3c(=O)n([H])c(N([H])[H])nc32)[C@]([H])(O[H])[C@]1([H])O[H]

>  <NetFormalCharge>  (38) 
0

$$$$
GTP
     RDKit          3D

 32 34  0  0  1  0  0  0  0  0999 V2000
   -6.0300   -2.3670    0.6370 P   0  0  0  0  0  0  0  0  0  0  0  0
   -7.3260   -1.9960    0.0260 O   0  0  0  0  0  0  0  0  0  0  0  0
   -6.2850   -2.9820    2.1030 O   0  0  0  0  0  0  0  0  0  0  0  0
   -5.2960   -3.4630   -0.2860 O   0  0  0  0  0  0  0  0  0  0  0  0
   -5.1010   -1.0580    0.7580 O   0  0  0  0  0  0  0  0  0  0  0  0
   -4.8180    0.2060   -0.1990 P   0  0  1  0  0  0  0  0  0  0  0  0
   -4.7320   -0.2500   -1.6050 O   0  0  0  0  0  0  0  0  0  0  0  0
   -6.0170    1.2690   -0.0520 O   0  0  0  0  0  0  0  0  0  0  0  0
   -3.4290    0.9000    0.2260 O   0  0  0  0  0  0  0  0  0  0  0  0
   -2.4490    1.9650   -0.4790 P   0  0  1  0  0  0  0  0  0  0  0  0
   -2.3500    1.6620   -1.9250 O   0  0  0  0  0  0  0  0  0  0  0  0
   -3.0400    3.4500   -0.2820 O   0  0  0  0  0  0  0  0  0  0  0  0
   -0.9880    1.8760    0.1900 O   0  0  0  0  0  0  0  0  0  0  0  0
    0.1340    2.6220   -0.2870 C   0  0  0  0  0  0  0  0  0  0  0  0
    1.3600    2.3040    0.5700 C   0  0  1  0  0  0  0  0  0  0  0  0
    1.7490    0.9330    0.3780 O   0  0  0  0  0  0  0  0  0  0  0  0
    2.5480    3.1820    0.1320 C   0  0  1  0  0  0  0  0  0  0  0  0
    2.9940    3.9970    1.2180 O   0  0  0  0  0  0  0  0  0  0  0  0
    3.6450    2.1660   -0.2690 C   0  0  1  0  0  0  0  0  0  0  0  0
    4.9290    2.5930    0.1900 O   0  0  0  0  0  0  0  0  0  0  0  0
    3.1880    0.8860    0.4760 C   0  0  2  0  0  0  0  0  0  0  0  0
    3.7110   -0.3110   -0.1880 N   0  0  0  0  0  0  0  0  0  0  0  0
    3.0940   -1.0210   -1.1760 C   0  0  0  0  0  0  0  0  0  0  0  0
    3.8430   -2.0230   -1.5330 N   0  0  0  0  0  0  0  0  0  0  0  0
    4.9810   -2.0170   -0.7980 C   0  0  0  0  0  0  0  0  0  0  0  0
    6.1290   -2.8420   -0.7530 C   0  0  0  0  0  0  0  0  0  0  0  0
    6.2350   -3.8070   -1.4910 O   0  0  0  0  0  0  0  0  0  0  0  0
    7.1060   -2.5350    0.1290 N   0  0  0  0  0  0  0  0  0  0  0  0
    6.9780   -1.4540    0.9500 C   0  0  0  0  0  0  0  0  0  0  0  0
    7.9860   -1.1650    1.8350 N   0  0  0  0  0  0  0  0  0  0  0  0
    5.9160   -0.6790    0.9170 N   0  0  0  0  0  0  0  0  0  0  0  0
    4.9110   -0.9180    0.0660 C   0  0  0  0  0  0  0  0  0  0  0  0
  1  2  2  0
  1  3  1  0
  1  4  1  0
  1  5  1  0
  6  5  1  0
  6  7  2  0
  6  8  1  6
  6  9  1  0
 10  9  1  0
 10 11  2  0
 10 12  1  6
 10 13  1  0
 13 14  1  0
 15 14  1  6
 15 16  1  0
 15 17  1  0
 16 21  1  0
 17 18  1  1
 17 19  1  0
 19 20  1  1
 19 21  1  0
 21 22  1  6
 22 23  1  0
 22 32  1  0
 23 24  2  0
 24 25  1  0
 25 26  1  0
 25 32  2  0
 26 27  2  0
 26 28  1  0
 28 29  1  0
 29 30  1  0
 29 31  2  0
 31 32  1  0
M  END
>  <LigandName>  (39) 
GTP

>  <Denticity>  (39) 
14

>  <DenticityDescription>  (39) 
14-dentate

>  <Delta_cm-1>  (39) 
23071

>  <DeltaConfidence>  (39) 
estimated

>  <SMILES>  (39) 
[H]O[C@@]1([H])[C@@]([H])(O[H])[C@]([H])(n2c([H])nc3c(=O)n([H])c(N([H])[H])nc32)O[C@]1([H])C([H])([H])O[P@](=O)(O[H])O[P@](=O)(O[H])OP(=O)(O[H])O[H]

>  <NetFormalCharge>  (39) 
0

$$$$

     RDKit          3D

  1  0  0  0  0  0  0  0  0  0999 V2000
   -0.0035    0.4041    0.0000 O   0  0  0  0  0  0  0  0  0  0  0  0
M  END
>  <LigandName>  (40) 
H₂O

>  <SMILES>  (40) 
O

>  <FieldStrength>  (40) 
moderate

>  <Delta_cm-1>  (40) 
20000

>  <DonorAtom>  (40) 
O

>  <Denticity>  (40) 
0

>  <DenticityDescription>  (40) 
non-dentate

>  <MolecularWeight>  (40) 
18.02

>  <HDonors>  (40) 
0

>  <HAcceptors>  (40) 
0

>  <LogP>  (40) 
-0.82

>  <NumAtoms>  (40) 
3

>  <NetFormalCharge>  (40) 
0

$$$$
HEZ
     RDKit          3D

  8  7  0  0  0  0  0  0  0  0999 V2000
   -0.2850    0.0000    4.2970 O   0  0  0  0  0  0  0  0  0  0  0  0
    0.5120    0.0000    3.1120 C   0  0  0  0  0  0  0  0  0  0  0  0
   -0.3990    0.0000    1.8830 C   0  0  0  0  0  0  0  0  0  0  0  0
    0.4550    0.0000    0.6140 C   0  0  0  0  0  0  0  0  0  0  0  0
   -0.4550    0.0000   -0.6140 C   0  0  0  0  0  0  0  0  0  0  0  0
    0.3990    0.0000   -1.8830 C   0  0  0  0  0  0  0  0  0  0  0  0
   -0.5120    0.0000   -3.1120 C   0  0  0  0  0  0  0  0  0  0  0  0
    0.2850    0.0000   -4.2970 O   0  0  0  0  0  0  0  0  0  0  0  0
  1  2  1  0
  2  3  1  0
  3  4  1  0
  4  5  1  0
  5  6  1  0
  6  7  1  0
  7  8  1  0
M  END
>  <LigandName>  (41) 
HEZ

>  <Denticity>  (41) 
2

>  <DenticityDescription>  (41) 
bidentate

>  <Delta_cm-1>  (41) 
20000

>  <DeltaConfidence>  (41) 
estimated

>  <SMILES>  (41) 
[H]OC([H])([H])C([H])([H])C([H])([H])C([H])([H])C([H])([H])C([H])([H])O[H]

>  <NetFormalCharge>  (41) 
0

$$$$

     RDKit          3D

  1  0  0  0  0  0  0  0  0  0999 V2000
    4.0000    0.0000    0.0000 H   0  0  0  0  0 15  0  0  0  0  0  0
M  CHG  1   1  -1
M  END
>  <LigandName>  (42) 
H⁻

>  <SMILES>  (42) 
[H-]

>  <FieldStrength>  (42) 
very strong

>  <Delta_cm-1>  (42) 
31000

>  <DonorAtom>  (42) 
H

>  <Denticity>  (42) 
0

>  <DenticityDescription>  (42) 
non-dentate

>  <MolecularWeight>  (42) 
1.01

>  <HDonors>  (42) 
0

>  <HAcceptors>  (42) 
0

>  <LogP>  (42) 
0.11

>  <NumAtoms>  (42) 
1

>  <NetFormalCharge>  (42) 
-1

$$$$
IMD
     RDKit          3D

  5  5  0  0  0  0  0  0  0  0999 V2000
    1.0760   -0.3410   -0.0020 N   0  0  0  0  0  0  0  0  0  0  0  0
    0.0000   -1.1110    0.0030 C   0  0  0  0  0  0  0  0  0  0  0  0
   -1.0760   -0.3410   -0.0020 N   0  0  0  0  0  0  0  0  0  0  0  0
   -0.6740    0.9470    0.0010 C   0  0  0  0  0  0  0  0  0  0  0  0
    0.6740    0.9470    0.0010 C   0  0  0  0  0  0  0  0  0  0  0  0
  1  2  1  0
  1  5  1  0
  2  3  2  0
  3  4  1  0
  4  5  2  0
M  CHG  1   3   1
M  END
>  <NetFormalCharge>  (43) 
1

$$$$

     RDKit          3D

  5  5  0  0  0  0  0  0  0  0999 V2000
    0.6144    0.6786   -0.1775 C   0  0  0  0  0  0  0  0  0  0  0  0
    1.0690   -0.6132   -0.0440 C   0  0  0  0  0  0  0  0  0  0  0  0
    0.0545   -1.4079    0.3515 N   0  0  0  0  0  0  0  0  0  0  0  0
   -1.0008   -0.5727    0.4496 C   0  0  0  0  0  0  0  0  0  0  0  0
   -0.6896    0.6978    0.1347 N   0  0  0  0  0  0  0  0  0  0  0  0
  1  2  2  0
  2  3  1  0
  3  4  2  0
  4  5  1  0
  5  1  1  0
M  END
>  <LigandName>  (44) 
Imidazole

>  <SMILES>  (44) 
c1cnc[nH]1

>  <FieldStrength>  (44) 
moderate-strong

>  <Delta_cm-1>  (44) 
24000

>  <DonorAtom>  (44) 
N

>  <Denticity>  (44) 
2

>  <DenticityDescription>  (44) 
bidentate

>  <MolecularWeight>  (44) 
68.08

>  <HDonors>  (44) 
1

>  <HAcceptors>  (44) 
1

>  <LogP>  (44) 
0.41

>  <NumAtoms>  (44) 
9

>  <NetFormalCharge>  (44) 
0

$$$$

     RDKit          3D

  1  0  0  0  0  0  0  0  0  0999 V2000
    4.0000    0.0000    0.0000 I   0  0  0  0  0 15  0  0  0  0  0  0
M  CHG  1   1  -1
M  END
>  <LigandName>  (45) 
I⁻

>  <SMILES>  (45) 
[I-]

>  <FieldStrength>  (45) 
very weak

>  <Delta_cm-1>  (45) 
10000

>  <DonorAtom>  (45) 
I

>  <Denticity>  (45) 
1

>  <DenticityDescription>  (45) 
monodentate

>  <MolecularWeight>  (45) 
126.9

>  <HDonors>  (45) 
0

>  <HAcceptors>  (45) 
0

>  <LogP>  (45) 
-3.0

>  <NumAtoms>  (45) 
1

>  <NetFormalCharge>  (45) 
-1

$$$$
IOD
     RDKit          2D

  1  0  0  0  0  0  0  0  0  0999 V2000
    0.0000    0.0000    0.0000 I   0  0  0  0  0  0  0  0  0  0  0  0
M  CHG  1   1  -1
M  END
>  <LigandName>  (46) 
IOD

>  <Denticity>  (46) 
1

>  <DenticityDescription>  (46) 
monodentate

>  <Delta_cm-1>  (46) 
12000

>  <DeltaConfidence>  (46) 
estimated

>  <SMILES>  (46) 
[I-]

>  <NetFormalCharge>  (46) 
-1

$$$$
K
     RDKit          2D

  1  0  0  0  0  0  0  0  0  0999 V2000
    0.0000    0.0000    0.0000 K   0  0  0  0  0 15  0  0  0  0  0  0
M  CHG  1   1   1
M  END
>  <LigandName>  (47) 
K

>  <Denticity>  (47) 
0

>  <DenticityDescription>  (47) 
non-dentate

>  <Delta_cm-1>  (47) 
20000

>  <DeltaConfidence>  (47) 
default

>  <SMILES>  (47) 
[K+]

>  <NetFormalCharge>  (47) 
1

$$$$
MAN
     RDKit          3D

 12 12  0  0  1  0  0  0  0  0999 V2000
   -1.6920   -0.1560   -0.3160 C   0  0  1  0  0  0  0  0  0  0  0  0
   -0.8780    0.0910   -1.5880 C   0  0  2  0  0  0  0  0  0  0  0  0
    0.5350   -0.4670   -1.3910 C   0  0  2  0  0  0  0  0  0  0  0  0
    1.1260    0.1340   -0.1110 C   0  0  1  0  0  0  0  0  0  0  0  0
    0.1600   -0.1170    1.0480 C   0  0  1  0  0  0  0  0  0  0  0  0
    0.7570    0.4480    2.3390 C   0  0  0  0  0  0  0  0  0  0  0  0
   -1.7350   -1.5580   -0.0460 O   0  0  0  0  0  0  0  0  0  0  0  0
   -0.8080    1.4940   -1.8450 O   0  0  0  0  0  0  0  0  0  0  0  0
    1.3500   -0.1130   -2.5110 O   0  0  0  0  0  0  0  0  0  0  0  0
    2.3840   -0.4820    0.1700 O   0  0  0  0  0  0  0  0  0  0  0  0
   -1.0870    0.5200    0.7840 O   0  0  0  0  0  0  0  0  0  0  0  0
   -0.1420    0.2110    3.4230 O   0  0  0  0  0  0  0  0  0  0  0  0
  1  2  1  0
  1  7  1  1
  1 11  1  0
  2  3  1  0
  2  8  1  1
  3  4  1  0
  3  9  1  6
  4  5  1  0
  4 10  1  1
  5  6  1  1
  5 11  1  0
  6 12  1  0
M  END
>  <LigandName>  (48) 
MAN

>  <Denticity>  (48) 
5

>  <DenticityDescription>  (48) 
pentadentate

>  <Delta_cm-1>  (48) 
20000

>  <DeltaConfidence>  (48) 
estimated

>  <SMILES>  (48) 
[H]OC([H])([H])[C@@]1([H])O[C@]([H])(O[H])[C@@]([H])(O[H])[C@@]([H])(O[H])[C@]1([H])O[H]

>  <NetFormalCharge>  (48) 
0

$$$$

     RDKit          3D

  3  2  0  0  0  0  0  0  0  0999 V2000
   -0.4924    0.0115    0.0548 C   0  0  0  0  0  0  0  0  0  0  0  0
    0.9614   -0.0225   -0.1069 C   0  0  0  0  0  0  0  0  0  0  0  0
    2.1112   -0.0494   -0.2348 N   0  0  0  0  0  0  0  0  0  0  0  0
  1  2  1  0
  2  3  3  0
M  END
>  <LigandName>  (49) 
MeCN

>  <SMILES>  (49) 
CC#N

>  <FieldStrength>  (49) 
moderate-strong

>  <Delta_cm-1>  (49) 
24000

>  <DonorAtom>  (49) 
N

>  <Denticity>  (49) 
2

>  <DenticityDescription>  (49) 
bidentate

>  <MolecularWeight>  (49) 
41.05

>  <HDonors>  (49) 
0

>  <HAcceptors>  (49) 
1

>  <LogP>  (49) 
0.53

>  <NumAtoms>  (49) 
6

>  <NetFormalCharge>  (49) 
0

$$$$

     RDKit          3D

  2  1  0  0  0  0  0  0  0  0999 V2000
   -0.3562   -0.0047   -0.0398 C   0  0  0  0  0  0  0  0  0  0  0  0
    0.9279   -0.5543   -0.1095 O   0  0  0  0  0  0  0  0  0  0  0  0
  1  2  1  0
M  END
>  <LigandName>  (50) 
MeOH

>  <SMILES>  (50) 
CO

>  <FieldStrength>  (50) 
moderate

>  <Delta_cm-1>  (50) 
20000

>  <DonorAtom>  (50) 
O

>  <Denticity>  (50) 
1

>  <DenticityDescription>  (50) 
monodentate

>  <MolecularWeight>  (50) 
32.04

>  <HDonors>  (50) 
1

>  <HAcceptors>  (50) 
1

>  <LogP>  (50) 
-0.39

>  <NumAtoms>  (50) 
6

>  <NetFormalCharge>  (50) 
0

$$$$
MES
     RDKit          3D

 12 12  0  0  0  0  0  0  0  0999 V2000
    4.1150    0.3260   -0.3730 O   0  0  0  0  0  0  0  0  0  0  0  0
    3.7640   -0.9230    0.2210 C   0  0  0  0  0  0  0  0  0  0  0  0
    2.3310   -1.2940   -0.1640 C   0  0  0  0  0  0  0  0  0  0  0  0
    1.4100   -0.2670    0.3430 N   0  0  0  0  0  0  0  0  0  0  0  0
    1.8120    1.0450   -0.1860 C   0  0  0  0  0  0  0  0  0  0  0  0
    3.2660    1.3210    0.1990 C   0  0  0  0  0  0  0  0  0  0  0  0
    0.0420   -0.5750   -0.0940 C   0  0  0  0  0  0  0  0  0  0  0  0
   -0.9320    0.4250    0.5330 C   0  0  0  0  0  0  0  0  0  0  0  0
   -2.6210    0.0450   -0.0070 S   0  0  0  0  0  0  0  0  0  0  0  0
   -2.9690   -1.3030    0.4150 O   0  0  0  0  0  0  0  0  0  0  0  0
   -2.6950    0.1380   -1.4570 O   0  0  0  0  0  0  0  0  0  0  0  0
   -3.5430    0.9980    0.5910 O   0  0  0  0  0  0  0  0  0  0  0  0
  1  2  1  0
  1  6  1  0
  2  3  1  0
  3  4  1  0
  4  5  1  0
  4  7  1  0
  5  6  1  0
  7  8  1  0
  8  9  1  0
  9 10  2  0
  9 11  2  0
  9 12  1  0
M  CHG  2   4   1  12  -1
M  END
>  <LigandName>  (51) 
MES

>  <Denticity>  (51) 
4

>  <DenticityDescription>  (51) 
tetradentate

>  <Delta_cm-1>  (51) 
18666

>  <DeltaConfidence>  (51) 
estimated

>  <SMILES>  (51) 
[H]C1([H])OC([H])([H])C([H])([H])[N+]([H])(C([H])([H])C([H])([H])S(=O)(=O)[O-])C1([H])[H]

>  <NetFormalCharge>  (51) 
0

$$$$
MG
     RDKit          2D

  1  0  0  0  0  0  0  0  0  0999 V2000
    0.0000    0.0000    0.0000 Mg  0  0  0  0  0 15  0  0  0  0  0  0
M  CHG  1   1   2
M  END
>  <LigandName>  (52) 
MG

>  <Denticity>  (52) 
0

>  <DenticityDescription>  (52) 
non-dentate

>  <Delta_cm-1>  (52) 
20000

>  <DeltaConfidence>  (52) 
default

>  <SMILES>  (52) 
[Mg+2]

>  <NetFormalCharge>  (52) 
2

$$$$
MLA
     RDKit          3D

  7  6  0  0  0  0  0  0  0  0999 V2000
   -0.0670    0.0000    1.2300 C   0  0  0  0  0  0  0  0  0  0  0  0
   -0.6290    0.0000    2.4490 O   0  0  0  0  0  0  0  0  0  0  0  0
    1.1350    0.0000    1.1190 O   0  0  0  0  0  0  0  0  0  0  0  0
   -0.9370    0.0000    0.0000 C   0  0  0  0  0  0  0  0  0  0  0  0
   -0.0670    0.0000   -1.2300 C   0  0  0  0  0  0  0  0  0  0  0  0
    1.1350    0.0000   -1.1190 O   0  0  0  0  0  0  0  0  0  0  0  0
   -0.6290    0.0000   -2.4490 O   0  0  0  0  0  0  0  0  0  0  0  0
  1  2  1  0
  1  3  2  0
  1  4  1  0
  4  5  1  0
  5  6  2  0
  5  7  1  0
M  END
>  <NetFormalCharge>  (53) 
0

$$$$
MLB
     RDKit          3D

 23 24  0  0  1  0  0  0  0  0999 V2000
    2.7210   -0.1030   -1.6670 C   0  0  1  0  0  0  0  0  0  0  0  0
    3.9730    0.4930   -1.0170 C   0  0  1  0  0  0  0  0  0  0  0  0
    4.1400   -0.0960    0.3870 C   0  0  2  0  0  0  0  0  0  0  0  0
    2.8730    0.1850    1.2000 C   0  0  1  0  0  0  0  0  0  0  0  0
    1.6640   -0.3990    0.4650 C   0  0  1  0  0  0  0  0  0  0  0  0
    0.3870   -0.0700    1.2410 C   0  0  0  0  0  0  0  0  0  0  0  0
    2.8840   -1.5160   -1.8060 O   0  0  0  0  0  0  0  0  0  0  0  0
    5.1200    0.1740   -1.8080 O   0  0  0  0  0  0  0  0  0  0  0  0
    5.2640    0.5100    1.0290 O   0  0  0  0  0  0  0  0  0  0  0  0
    2.9870   -0.4230    2.4880 O   0  0  0  0  0  0  0  0  0  0  0  0
    1.5850    0.1680   -0.8450 O   0  0  0  0  0  0  0  0  0  0  0  0
   -0.7280   -0.7130    0.6190 O   0  0  0  0  0  0  0  0  0  0  0  0
   -1.9770   -0.4700    1.2690 C   0  0  2  0  0  0  0  0  0  0  0  0
   -3.0470   -1.3920    0.6800 C   0  0  1  0  0  0  0  0  0  0  0  0
   -3.2270   -1.0690   -0.8060 C   0  0  2  0  0  0  0  0  0  0  0  0
   -3.5890    0.4110   -0.9560 C   0  0  2  0  0  0  0  0  0  0  0  0
   -2.4970    1.2640   -0.3040 C   0  0  1  0  0  0  0  0  0  0  0  0
   -2.8810    2.7420   -0.3970 C   0  0  0  0  0  0  0  0  0  0  0  0
   -2.6380   -2.7530    0.8280 O   0  0  0  0  0  0  0  0  0  0  0  0
   -4.2760   -1.8750   -1.3470 O   0  0  0  0  0  0  0  0  0  0  0  0
   -4.8400    0.6640   -0.3130 O   0  0  0  0  0  0  0  0  0  0  0  0
   -2.3610    0.8920    1.0690 O   0  0  0  0  0  0  0  0  0  0  0  0
   -1.8110    3.5450    0.1060 O   0  0  0  0  0  0  0  0  0  0  0  0
  1  7  1  1
  1 11  1  0
  2  3  1  0
  2  1  1  0
  3  4  1  0
  4 10  1  1
  4  5  1  0
  5  6  1  1
  6 12  1  0
  2  8  1  6
  3  9  1  1
 11  5  1  0
 13 12  1  6
 13 14  1  0
 14 15  1  0
 14 19  1  6
 15 20  1  1
 16 21  1  1
 16 15  1  0
 17 16  1  0
 17 18  1  1
 22 17  1  0
 22 13  1  0
 23 18  1  0
M  END
>  <NetFormalCharge>  (54) 
0

$$$$
MLC
     RDKit          3D

 54 56  0  0  1  0  0  0  0  0999 V2000
    3.7240    0.6640   -4.5520 C   0  0  0  0  0  0  0  0  0  0  0  0
    3.3780    0.8190   -5.8610 N   0  0  0  0  0  0  0  0  0  0  0  0
    4.5030    1.2160   -6.5390 C   0  0  0  0  0  0  0  0  0  0  0  0
    5.5260    1.2980   -5.5790 C   0  0  0  0  0  0  0  0  0  0  0  0
    4.9840    0.9450   -4.3880 N   0  0  0  0  0  0  0  0  0  0  0  0
    4.7780    1.5220   -7.8030 N   0  0  0  0  0  0  0  0  0  0  0  0
    5.9930    1.8870   -8.1550 C   0  0  0  0  0  0  0  0  0  0  0  0
    6.9870    1.9730   -7.2900 N   0  0  0  0  0  0  0  0  0  0  0  0
    6.8050    1.6920   -6.0040 C   0  0  0  0  0  0  0  0  0  0  0  0
    7.8530    1.7840   -5.1040 N   0  0  0  0  0  0  0  0  0  0  0  0
    2.0510    0.5980   -6.4400 C   0  0  1  0  0  0  0  0  0  0  0  0
    1.8550   -0.8940   -6.8100 C   0  0  2  0  0  0  0  0  0  0  0  0
    2.3630   -1.1650   -8.1180 O   0  0  0  0  0  0  0  0  0  0  0  0
    0.3110   -1.0380   -6.7760 C   0  0  2  0  0  0  0  0  0  0  0  0
   -0.2290   -0.9360   -8.0950 O   0  0  0  0  0  0  0  0  0  0  0  0
   -0.1540    0.1420   -5.9010 C   0  0  2  0  0  0  0  0  0  0  0  0
    1.0210    0.8380   -5.4570 O   0  0  0  0  0  0  0  0  0  0  0  0
   -0.9360   -0.3810   -4.6950 C   0  0  0  0  0  0  0  0  0  0  0  0
   -1.3580    0.7190   -3.8870 O   0  0  0  0  0  0  0  0  0  0  0  0
   -2.1700    0.0980   -2.6430 P   0  0  2  0  0  0  0  0  0  0  0  0
   -1.2840   -0.8060   -1.8770 O   0  0  0  0  0  0  0  0  0  0  0  0
   -3.4390   -0.7280   -3.1890 O   0  0  0  0  0  0  0  0  0  0  0  0
   -2.6770    1.2890   -1.6860 O   0  0  0  0  0  0  0  0  0  0  0  0
   -3.4770    0.6000   -0.4700 P   0  0  2  0  0  0  0  0  0  0  0  0
   -2.5710   -0.3120    0.2610 O   0  0  0  0  0  0  0  0  0  0  0  0
   -4.7240   -0.2340   -1.0530 O   0  0  0  0  0  0  0  0  0  0  0  0
   -4.0160    1.7390    0.5310 O   0  0  0  0  0  0  0  0  0  0  0  0
   -4.7130    1.0680    1.5830 C   0  0  0  0  0  0  0  0  0  0  0  0
   -5.2530    2.1000    2.5760 C   0  0  0  0  0  0  0  0  0  0  0  0
   -5.9990    1.3810    3.7020 C   0  0  1  0  0  0  0  0  0  0  0  0
   -4.0890    2.9000    3.1640 C   0  0  0  0  0  0  0  0  0  0  0  0
   -6.2110    3.0490    1.8540 C   0  0  0  0  0  0  0  0  0  0  0  0
   -7.1650    0.7470    3.1720 O   0  0  0  0  0  0  0  0  0  0  0  0
   -5.0980    0.3430    4.3190 C   0  0  0  0  0  0  0  0  0  0  0  0
   -5.3190   -0.8350    4.1370 O   0  0  0  0  0  0  0  0  0  0  0  0
   -4.0480    0.7240    5.0730 N   0  0  0  0  0  0  0  0  0  0  0  0
   -3.2200   -0.2840    5.7390 C   0  0  0  0  0  0  0  0  0  0  0  0
   -2.1050    0.4090    6.5230 C   0  0  0  0  0  0  0  0  0  0  0  0
   -1.2530   -0.6280    7.2080 C   0  0  0  0  0  0  0  0  0  0  0  0
   -1.5130   -1.8060    7.0820 O   0  0  0  0  0  0  0  0  0  0  0  0
   -0.2030   -0.2470    7.9620 N   0  0  0  0  0  0  0  0  0  0  0  0
    0.6250   -1.2550    8.6280 C   0  0  0  0  0  0  0  0  0  0  0  0
    1.7400   -0.5620    9.4130 C   0  0  0  0  0  0  0  0  0  0  0  0
    2.7630   -1.8080   10.2360 S   0  0  0  0  0  0  0  0  0  0  0  0
   -1.0280   -2.3050   -8.3770 P   0  0  0  0  0  0  0  0  0  0  0  0
   -1.6680   -2.2590   -9.8540 O   0  0  0  0  0  0  0  0  0  0  0  0
   -0.0140   -3.5500   -8.2700 O   0  0  0  0  0  0  0  0  0  0  0  0
   -2.1080   -2.4610   -7.3760 O   0  0  0  0  0  0  0  0  0  0  0  0
    3.8980   -0.7920   11.0170 C   0  0  0  0  0  0  0  0  0  0  0  0
    4.9940   -1.3940   11.8580 C   0  0  0  0  0  0  0  0  0  0  0  0
    5.8510   -0.2930   12.4300 C   0  0  0  0  0  0  0  0  0  0  0  0
    3.8200    0.4120   10.8930 O   0  0  0  0  0  0  0  0  0  0  0  0
    6.8950   -0.5950   13.2160 O   0  0  0  0  0  0  0  0  0  0  0  0
    5.5970    0.8600   12.1790 O   0  0  0  0  0  0  0  0  0  0  0  0
  1  2  1  0
  1  5  2  0
  2  3  1  0
 11  2  1  1
  3  4  2  0
  3  6  1  0
  4  5  1  0
  4  9  1  0
  6  7  2  0
  7  8  1  0
  8  9  2  0
  9 10  1  0
 11 12  1  0
 11 17  1  0
 12 13  1  6
 12 14  1  0
 14 15  1  6
 14 16  1  0
 15 45  1  0
 16 17  1  0
 16 18  1  1
 18 19  1  0
 20 19  1  0
 20 21  2  0
 20 22  1  6
 20 23  1  0
 24 23  1  0
 24 25  2  0
 24 26  1  6
 24 27  1  0
 27 28  1  0
 28 29  1  0
 29 30  1  0
 29 31  1  0
 29 32  1  0
 30 33  1  6
 30 34  1  0
 34 35  2  0
 34 36  1  0
 36 37  1  0
 37 38  1  0
 38 39  1  0
 39 40  2  0
 39 41  1  0
 41 42  1  0
 42 43  1  0
 43 44  1  0
 44 49  1  0
 45 46  1  0
 45 47  1  0
 45 48  2  0
 49 50  1  0
 49 52  2  0
 50 51  1  0
 51 53  1  0
 51 54  2  0
M  END
>  <NetFormalCharge>  (55) 
0

$$$$
MLD
     RDKit          3D

 64 66  0  0  1  0  0  0  0  0999 V2000
   10.7480   -2.3840    0.9430 C   0  0  0  0  0  0  0  0  0  0  0  0
   10.0830   -1.4460   -0.0310 C   0  0  0  0  0  0  0  0  0  0  0  0
    9.2930   -1.8760   -0.8450 O   0  0  0  0  0  0  0  0  0  0  0  0
   10.3680   -0.1280    0.0010 N   0  0  0  0  0  0  0  0  0  0  0  0
    9.7220    0.7830   -0.9470 C   0  0  2  0  0  0  0  0  0  0  0  0
   10.6040    2.0210   -1.1500 C   0  0  1  0  0  0  0  0  0  0  0  0
   11.8170    1.6460   -1.8060 O   0  0  0  0  0  0  0  0  0  0  0  0
    9.8400    3.0290   -2.0170 C   0  0  2  0  0  0  0  0  0  0  0  0
   10.5800    4.2490   -2.0980 O   0  0  0  0  0  0  0  0  0  0  0  0
    8.4750    3.2990   -1.3810 C   0  0  1  0  0  0  0  0  0  0  0  0
    7.7180    4.3300   -2.2220 C   0  0  0  0  0  0  0  0  0  0  0  0
    6.4970    4.6760   -1.5660 O   0  0  0  0  0  0  0  0  0  0  0  0
    7.7210    2.0900   -1.3220 O   0  0  0  0  0  0  0  0  0  0  0  0
    8.3660    1.2240   -0.3910 C   0  0  1  0  0  0  0  0  0  0  0  0
    7.5480    0.0730   -0.1670 O   0  0  0  0  0  0  0  0  0  0  0  0
    6.3500    0.5340    0.4620 C   0  0  2  0  0  0  0  0  0  0  0  0
    6.5300    0.5180    1.9910 C   0  0  2  0  0  0  0  0  0  0  0  0
    6.9400   -0.8500    2.3390 O   0  0  0  0  0  0  0  0  0  0  0  0
    5.1430    0.6450    2.6650 C   0  0  0  0  0  0  0  0  0  0  0  0
    4.6810   -0.7090    2.8180 O   0  0  0  0  0  0  0  0  0  0  0  0
    5.6870   -1.5640    2.2460 C   0  0  1  0  0  0  0  0  0  0  0  0
    5.3690   -1.7480    0.7540 C   0  0  2  0  0  0  0  0  0  0  0  0
    6.4850   -2.4280    0.0910 N   0  0  0  0  0  0  0  0  0  0  0  0
    6.5520   -3.7740    0.0960 C   0  0  0  0  0  0  0  0  0  0  0  0
    7.6990   -4.4740   -0.5850 C   0  0  0  0  0  0  0  0  0  0  0  0
    5.6880   -4.4220    0.6490 O   0  0  0  0  0  0  0  0  0  0  0  0
    5.1600   -0.3690    0.1190 C   0  0  1  0  0  0  0  0  0  0  0  0
    3.9580    0.2130    0.6280 O   0  0  0  0  0  0  0  0  0  0  0  0
    2.9010   -0.1940   -0.2430 C   0  0  2  0  0  0  0  0  0  0  0  0
    2.7440    0.8310   -1.3680 C   0  0  0  0  0  0  0  0  0  0  0  0
    1.6140   -0.2840    0.5370 C   0  0  0  0  0  0  0  0  0  0  0  0
    1.5840    0.0610    1.6990 O   0  0  0  0  0  0  0  0  0  0  0  0
    0.4970   -0.7480   -0.0580 N   0  0  0  0  0  0  0  0  0  0  0  0
   -0.7540   -0.8360    0.7000 C   0  0  1  0  0  0  0  0  0  0  0  0
   -1.4700    0.5160    0.6600 C   0  0  0  0  0  0  0  0  0  0  0  0
   -1.6380   -1.8920    0.0880 C   0  0  0  0  0  0  0  0  0  0  0  0
   -1.2610   -2.5100   -0.8840 O   0  0  0  0  0  0  0  0  0  0  0  0
   -2.8490   -2.1490    0.6230 N   0  0  0  0  0  0  0  0  0  0  0  0
   -3.7080   -3.1750    0.0290 C   0  0  1  0  0  0  0  0  0  0  0  0
   -3.3360   -4.5260    0.5840 C   0  0  0  0  0  0  0  0  0  0  0  0
   -3.9960   -5.6230    0.1800 O   0  0  0  0  0  0  0  0  0  0  0  0
   -2.4440   -4.6210    1.3940 O   0  0  0  0  0  0  0  0  0  0  0  0
   -5.1700   -2.8720    0.3620 C   0  0  0  0  0  0  0  0  0  0  0  0
   -5.5840   -1.5600   -0.3070 C   0  0  0  0  0  0  0  0  0  0  0  0
   -7.0240   -1.2600    0.0220 C   0  0  0  0  0  0  0  0  0  0  0  0
   -7.6570   -2.0220    0.7220 O   0  0  0  0  0  0  0  0  0  0  0  0
   -7.6090   -0.1470   -0.4630 N   0  0  0  0  0  0  0  0  0  0  0  0
   -9.0090    0.1440   -0.1440 C   0  0  2  0  0  0  0  0  0  0  0  0
   -9.9060   -0.5770   -1.1160 C   0  0  0  0  0  0  0  0  0  0  0  0
   -9.4240   -1.2650   -1.9910 O   0  0  0  0  0  0  0  0  0  0  0  0
  -11.2450   -0.4560   -1.0150 N   0  0  0  0  0  0  0  0  0  0  0  0
  -12.1170   -1.1560   -1.9610 C   0  0  2  0  0  0  0  0  0  0  0  0
  -12.2840   -0.3100   -3.2240 C   0  0  0  0  0  0  0  0  0  0  0  0
  -13.4660   -1.3830   -1.3270 C   0  0  0  0  0  0  0  0  0  0  0  0
  -13.6760   -0.9990   -0.2010 O   0  0  0  0  0  0  0  0  0  0  0  0
  -14.4330   -2.0120   -2.0140 O   0  0  0  0  0  0  0  0  0  0  0  0
   -9.2530    1.6510   -0.2450 C   0  0  0  0  0  0  0  0  0  0  0  0
   -8.4340    2.3730    0.8270 C   0  0  0  0  0  0  0  0  0  0  0  0
   -8.6780    3.8800    0.7260 C   0  0  0  0  0  0  0  0  0  0  0  0
   -7.8600    4.6020    1.7990 C   0  0  2  0  0  0  0  0  0  0  0  0
   -8.1930    6.0720    1.7800 C   0  0  0  0  0  0  0  0  0  0  0  0
   -7.4550    6.8510    1.2240 O   0  0  0  0  0  0  0  0  0  0  0  0
   -9.3080    6.5150    2.3800 O   0  0  0  0  0  0  0  0  0  0  0  0
   -6.4280    4.4210    1.5260 N   0  0  0  0  0  0  0  0  0  0  0  0
  1  2  1  0
  2  3  2  0
  2  4  1  0
  5  4  1  1
  5  6  1  0
  5 14  1  0
  6  7  1  6
  6  8  1  0
  8  9  1  1
  8 10  1  0
 10 11  1  6
 10 13  1  0
 11 12  1  0
 13 14  1  0
 14 15  1  6
 16 15  1  6
 16 17  1  0
 16 27  1  0
 17 18  1  0
 17 19  1  1
 18 21  1  0
 19 20  1  0
 21 20  1  6
 21 22  1  0
 22 23  1  6
 22 27  1  0
 23 24  1  0
 24 25  1  0
 24 26  2  0
 27 28  1  1
 28 29  1  0
 29 30  1  6
 29 31  1  0
 31 32  2  0
 31 33  1  0
 33 34  1  0
 34 35  1  6
 34 36  1  0
 36 37  2  0
 36 38  1  0
 38 39  1  0
 39 40  1  0
 39 43  1  1
 40 41  1  0
 40 42  2  0
 43 44  1  0
 44 45  1  0
 45 46  2  0
 45 47  1  0
 47 48  1  0
 48 49  1  0
 48 57  1  6
 49 50  2  0
 49 51  1  0
 51 52  1  0
 52 53  1  6
 52 54  1  0
 54 55  2  0
 54 56  1  0
 57 58  1  0
 58 59  1  0
 59 60  1  0
 60 61  1  0
 60 64  1  6
 61 62  2  0
 61 63  1  0
M  END
>  <NetFormalCharge>  (56) 
0

$$$$
MLE
     RDKit          3D

 10  9  0  0  1  0  0  0  0  0999 V2000
   -0.5190   -1.4170   -0.5190 N   0  0  0  0  0  0  0  0  0  0  0  0
   -1.1550   -2.4130    0.3540 C   0  0  0  0  0  0  0  0  0  0  0  0
   -0.3940   -0.1220    0.1630 C   0  0  1  0  0  0  0  0  0  0  0  0
    0.7770    0.6590   -0.4360 C   0  0  0  0  0  0  0  0  0  0  0  0
    2.0860   -0.0710   -0.1320 C   0  0  0  0  0  0  0  0  0  0  0  0
    3.2410    0.6310   -0.8500 C   0  0  0  0  0  0  0  0  0  0  0  0
    2.3400   -0.0580    1.3760 C   0  0  0  0  0  0  0  0  0  0  0  0
   -1.6670    0.6650   -0.0140 C   0  0  0  0  0  0  0  0  0  0  0  0
   -2.3640    0.4750   -0.9820 O   0  0  0  0  0  0  0  0  0  0  0  0
   -2.0250    1.5770    0.9030 O   0  0  0  0  0  0  0  0  0  0  0  0
  1  2  1  0
  1  3  1  0
  3  4  1  6
  3  8  1  0
  4  5  1  0
  5  6  1  0
  5  7  1  0
  8  9  2  0
  8 10  1  0
M  END
>  <NetFormalCharge>  (57) 
0

$$$$
MLG
     RDKit          3D

 17 17  0  0  1  0  0  0  0  0999 V2000
   -1.0960    0.0140   -1.5200 C   0  0  0  0  0  0  0  0  0  0  0  0
   -1.7060   -0.0260   -2.7580 C   0  0  0  0  0  0  0  0  0  0  0  0
   -0.9380   -0.0320   -3.9090 C   0  0  0  0  0  0  0  0  0  0  0  0
   -1.7080   -0.0840   -5.4650 Cl  0  0  0  0  0  0  0  0  0  0  0  0
    0.4410    0.0030   -3.8230 C   0  0  0  0  0  0  0  0  0  0  0  0
    1.0560    0.0500   -2.5850 C   0  0  0  0  0  0  0  0  0  0  0  0
    2.7880    0.0950   -2.4760 Cl  0  0  0  0  0  0  0  0  0  0  0  0
    0.2870    0.0500   -1.4300 C   0  0  0  0  0  0  0  0  0  0  0  0
    0.8890    0.0900   -0.2110 O   0  0  0  0  0  0  0  0  0  0  0  0
    0.4590    0.1300    2.1660 C   0  0  0  0  0  0  0  0  0  0  0  0
   -0.1530    0.0860    0.7640 C   0  0  0  0  0  0  0  0  0  0  0  0
   -0.6570    0.1260    3.2110 C   0  0  0  0  0  0  0  0  0  0  0  0
   -0.0690    0.1680    4.5560 N   0  0  0  0  0  0  0  0  0  0  0  0
    0.6500   -1.0970    4.7430 C   0  0  0  0  0  0  0  0  0  0  0  0
   -1.1880    0.1610    5.5070 C   0  0  0  0  0  0  0  0  0  0  0  0
   -0.6650    0.2030    6.8820 C   0  0  0  0  0  0  0  0  0  0  0  0
   -0.2470    0.2370    7.9790 C   0  0  0  0  0  0  0  0  0  0  0  0
  1  2  2  0
  1  8  1  0
  2  3  1  0
  3  4  1  0
  3  5  2  0
  5  6  1  0
  6  7  1  0
  6  8  2  0
  8  9  1  0
  9 11  1  0
 10 11  1  0
 10 12  1  0
 12 13  1  0
 13 14  1  0
 13 15  1  0
 15 16  1  0
 16 17  3  0
M  END
>  <NetFormalCharge>  (58) 
0

$$$$
MLH
     RDKit          3D

 26 28  0  0  0  0  0  0  0  0999 V2000
    4.1670    4.3640    2.0960 C   0  0  0  0  0  0  0  0  0  0  0  0
    3.8140    3.7440    0.7420 C   0  0  0  0  0  0  0  0  0  0  0  0
    2.8360    2.6880    0.9330 O   0  0  0  0  0  0  0  0  0  0  0  0
    2.4160    2.0350   -0.1700 C   0  0  0  0  0  0  0  0  0  0  0  0
    2.8550    2.3420   -1.2620 O   0  0  0  0  0  0  0  0  0  0  0  0
    1.4290    0.9560   -0.0520 C   0  0  0  0  0  0  0  0  0  0  0  0
    1.6890   -0.3710    0.1340 C   0  0  0  0  0  0  0  0  0  0  0  0
    3.0630   -0.9770    0.2560 C   0  0  0  0  0  0  0  0  0  0  0  0
    3.5490   -1.3600   -1.0770 N   0  0  0  0  0  0  0  0  0  0  0  0
    3.7620   -0.1750   -1.9200 C   0  0  0  0  0  0  0  0  0  0  0  0
    4.7740   -2.1640   -0.9800 C   0  0  0  0  0  0  0  0  0  0  0  0
   -0.0390    1.0920   -0.1060 C   0  0  0  0  0  0  0  0  0  0  0  0
   -0.9030    2.1720   -0.2690 C   0  0  0  0  0  0  0  0  0  0  0  0
   -2.2690    1.9600   -0.2750 C   0  0  0  0  0  0  0  0  0  0  0  0
   -3.1170    3.0100   -0.4350 O   0  0  0  0  0  0  0  0  0  0  0  0
   -2.7770    0.6730   -0.1190 C   0  0  0  0  0  0  0  0  0  0  0  0
   -4.6480    0.3970   -0.1310 Br  0  0  0  0  0  0  0  0  0  0  0  0
   -1.9290   -0.4010    0.0430 C   0  0  0  0  0  0  0  0  0  0  0  0
   -0.5520   -0.2040    0.0520 C   0  0  0  0  0  0  0  0  0  0  0  0
    0.5240   -1.0620    0.1940 N   0  0  0  0  0  0  0  0  0  0  0  0
    0.4240   -2.4460    0.3780 C   0  0  0  0  0  0  0  0  0  0  0  0
   -0.1630   -2.9550    1.5300 C   0  0  0  0  0  0  0  0  0  0  0  0
   -0.2610   -4.3210    1.7080 C   0  0  0  0  0  0  0  0  0  0  0  0
    0.2250   -5.1820    0.7420 C   0  0  0  0  0  0  0  0  0  0  0  0
    0.8110   -4.6790   -0.4060 C   0  0  0  0  0  0  0  0  0  0  0  0
    0.9060   -3.3140   -0.5930 C   0  0  0  0  0  0  0  0  0  0  0  0
  1  2  1  0
  2  3  1  0
  4  6  1  0
  4  3  1  0
  5  4  2  0
  6  7  2  0
  7 20  1  0
  7  8  1  0
  8  9  1  0
  9 10  1  0
 11  9  1  0
 12  6  1  0
 12 19  2  0
 13 12  1  0
 14 13  2  0
 14 16  1  0
 15 14  1  0
 16 18  2  0
 17 16  1  0
 18 19  1  0
 19 20  1  0
 20 21  1  0
 21 22  2  0
 22 23  1  0
 24 23  2  0
 25 24  1  0
 26 21  1  0
 26 25  2  0
M  END
>  <NetFormalCharge>  (59) 
0

$$$$
MLI
     RDKit          3D

  7  6  0  0  0  0  0  0  0  0999 V2000
    0.0000    0.9590    0.0010 C   0  0  0  0  0  0  0  0  0  0  0  0
    1.2300    0.0890    0.0020 C   0  0  0  0  0  0  0  0  0  0  0  0
   -1.2300    0.0890    0.0000 C   0  0  0  0  0  0  0  0  0  0  0  0
    1.1190   -1.1260    0.0010 O   0  0  0  0  0  0  0  0  0  0  0  0
    2.3380    0.5990   -0.0020 O   0  0  0  0  0  0  0  0  0  0  0  0
   -1.1190   -1.1260   -0.0010 O   0  0  0  0  0  0  0  0  0  0  0  0
   -2.3380    0.5990   -0.0010 O   0  0  0  0  0  0  0  0  0  0  0  0
  1  2  1  0
  1  3  1  0
  2  4  2  0
  2  5  1  0
  3  6  2  0
  3  7  1  0
M  CHG  2   5  -1   7  -1
M  END
>  <NetFormalCharge>  (60) 
-2

$$$$
MLJ
     RDKit          3D

 29 31  0  0  1  0  0  0  0  0999 V2000
    7.9590    0.1340   -0.3820 C   0  0  0  0  0  0  0  0  0  0  0  0
    5.6360   -0.2870   -0.6460 C   0  0  0  0  0  0  0  0  0  0  0  0
    5.4430    0.3540    0.5720 C   0  0  0  0  0  0  0  0  0  0  0  0
    4.1740    0.4870    1.0890 C   0  0  0  0  0  0  0  0  0  0  0  0
    3.0790   -0.0230    0.3870 C   0  0  0  0  0  0  0  0  0  0  0  0
    3.2760   -0.6660   -0.8370 C   0  0  0  0  0  0  0  0  0  0  0  0
    4.5490   -0.7950   -1.3470 C   0  0  0  0  0  0  0  0  0  0  0  0
    1.7160    0.1170    0.9380 C   0  0  0  0  0  0  0  0  0  0  0  0
   -0.6910   -0.2360    0.8060 C   0  0  0  0  0  0  0  0  0  0  0  0
   -1.6970   -0.8750   -0.1530 C   0  0  0  0  0  0  0  0  0  0  0  0
   -3.0880   -0.7320    0.4090 C   0  0  0  0  0  0  0  0  0  0  0  0
   -5.4950   -1.0850    0.2770 C   0  0  2  0  0  0  0  0  0  0  0  0
   -6.3830   -2.1930   -0.2870 C   0  0  0  0  0  0  0  0  0  0  0  0
   -7.8330   -1.9050    0.1220 C   0  0  0  0  0  0  0  0  0  0  0  0
   -8.3170   -0.6810   -0.6530 C   0  0  0  0  0  0  0  0  0  0  0  0
   -7.3390    0.4560   -0.5130 C   0  0  0  0  0  0  0  0  0  0  0  0
   -7.7830    1.7330   -0.8290 C   0  0  0  0  0  0  0  0  0  0  0  0
   -6.9340    2.8160   -0.7250 C   0  0  0  0  0  0  0  0  0  0  0  0
   -5.6310    2.6290   -0.3030 C   0  0  0  0  0  0  0  0  0  0  0  0
   -5.1890    1.3600    0.0130 C   0  0  0  0  0  0  0  0  0  0  0  0
   -6.0420    0.2700   -0.0890 C   0  0  0  0  0  0  0  0  0  0  0  0
    9.1700   -0.0800   -1.0490 F   0  0  0  0  0  0  0  0  0  0  0  0
    7.9980   -0.4920    0.8680 F   0  0  0  0  0  0  0  0  0  0  0  0
    7.7580    1.5080   -0.2100 F   0  0  0  0  0  0  0  0  0  0  0  0
    0.6610   -0.3750    0.2590 N   0  0  0  0  0  0  0  0  0  0  0  0
   -4.1430   -1.2240   -0.2690 N   0  0  0  0  0  0  0  0  0  0  0  0
    6.8870   -0.4110   -1.1550 O   0  0  0  0  0  0  0  0  0  0  0  0
    1.5460    0.6770    2.0040 O   0  0  0  0  0  0  0  0  0  0  0  0
   -3.2580   -0.1740    1.4720 O   0  0  0  0  0  0  0  0  0  0  0  0
  1 27  1  0
  1 23  1  0
  2  7  2  0
  2 27  1  0
  3  2  1  0
  4  5  1  0
  4  3  2  0
  5  6  2  0
  6  7  1  0
  8 25  1  0
  8  5  1  0
  9 10  1  0
  9 25  1  0
 10 11  1  0
 11 26  1  0
 12 13  1  0
 12 21  1  0
 13 14  1  0
 14 15  1  0
 16 15  1  0
 16 17  2  0
 18 17  1  0
 19 18  2  0
 20 21  2  0
 20 19  1  0
 21 16  1  0
 22  1  1  0
 24  1  1  0
 12 26  1  6
 28  8  2  0
 29 11  2  0
M  END
>  <NetFormalCharge>  (61) 
0

$$$$
MLK
     RDKit          3D

 49 56  0  0  1  0  0  0  0  0999 V2000
    6.0850   -1.5930    2.1710 O   0  0  0  0  0  0  0  0  0  0  0  0
    6.3180   -1.7820    0.9970 C   0  0  0  0  0  0  0  0  0  0  0  0
    6.5710   -3.1310    0.3600 C   0  0  0  0  0  0  0  0  0  0  0  0
    6.8060   -2.7910   -1.1260 C   0  0  2  0  0  0  0  0  0  0  0  0
    8.2110   -3.2130   -1.5600 C   0  0  0  0  0  0  0  0  0  0  0  0
    6.6550   -1.2860   -1.1740 C   0  0  0  0  0  0  0  0  0  0  0  0
    6.7630   -0.6010   -2.1680 O   0  0  0  0  0  0  0  0  0  0  0  0
    6.3910   -0.8310    0.0570 N   0  0  0  0  0  0  0  0  0  0  0  0
    6.2020    0.5240    0.3380 C   0  0  0  0  0  0  0  0  0  0  0  0
    7.2820    1.3200    0.6900 C   0  0  0  0  0  0  0  0  0  0  0  0
    7.0930    2.6600    0.9670 C   0  0  0  0  0  0  0  0  0  0  0  0
    5.8280    3.2200    0.8890 C   0  0  0  0  0  0  0  0  0  0  0  0
    4.7450    2.4460    0.5350 C   0  0  0  0  0  0  0  0  0  0  0  0
    4.9210    1.0890    0.2520 C   0  0  0  0  0  0  0  0  0  0  0  0
    3.7660    0.2550   -0.1270 C   0  0  0  0  0  0  0  0  0  0  0  0
    3.9230   -0.9250   -0.3720 O   0  0  0  0  0  0  0  0  0  0  0  0
    2.5360    0.8000   -0.2020 O   0  0  0  0  0  0  0  0  0  0  0  0
    1.3990   -0.0210   -0.5760 C   0  0  0  0  0  0  0  0  0  0  0  0
    0.1310    0.8370   -0.5860 C   0  0  1  0  0  0  0  0  0  0  0  0
    0.3170    1.9440   -1.6150 C   0  0  0  0  0  0  0  0  0  0  0  0
   -0.8580    2.9140   -1.5040 C   0  0  0  0  0  0  0  0  0  0  0  0
   -2.1550    2.1690   -1.7490 C   0  0  2  0  0  0  0  0  0  0  0  0
   -3.2410    3.0510   -1.4390 O   0  0  0  0  0  0  0  0  0  0  0  0
   -3.5630    3.7480   -2.6450 C   0  0  0  0  0  0  0  0  0  0  0  0
   -2.3300    0.8850   -0.9780 C   0  0  1  0  0  0  0  0  0  0  0  0
   -1.0940   -0.0370   -0.9400 C   0  0  2  0  0  0  0  0  0  0  0  0
   -2.5290    1.1580    0.5390 C   0  0  2  0  0  0  0  0  0  0  0  0
   -1.4280    2.0000    0.9640 N   0  0  0  0  0  0  0  0  0  0  0  0
   -1.6220    2.4370    2.3380 C   0  0  0  0  0  0  0  0  0  0  0  0
   -0.8650    3.7470    2.5680 C   0  0  0  0  0  0  0  0  0  0  0  0
   -0.1100    1.4290    0.8050 C   0  0  0  0  0  0  0  0  0  0  0  0
   -3.5290    0.1330   -1.5270 C   0  0  2  0  0  0  0  0  0  0  0  0
   -4.8620    0.8670   -1.3390 C   0  0  0  0  0  0  0  0  0  0  0  0
   -5.9220   -0.2370   -1.0590 C   0  0  2  0  0  0  0  0  0  0  0  0
   -6.2040   -0.1820    0.4520 C   0  0  1  0  0  0  0  0  0  0  0  0
   -7.0990   -1.2180    0.8620 O   0  0  0  0  0  0  0  0  0  0  0  0
   -7.8280   -0.7150    1.9830 C   0  0  0  0  0  0  0  0  0  0  0  0
   -4.9160   -0.2280    1.2460 C   0  0  0  0  0  0  0  0  0  0  0  0
   -3.7480   -1.2180   -0.8250 C   0  0  2  0  0  0  0  0  0  0  0  0
   -5.1830   -1.5750   -1.3060 C   0  0  1  0  0  0  0  0  0  0  0  0
   -5.7270   -2.6690   -0.5810 O   0  0  0  0  0  0  0  0  0  0  0  0
   -6.6190   -3.3490   -1.4660 C   0  0  0  0  0  0  0  0  0  0  0  0
   -3.7550   -1.0350    0.6850 C   0  0  2  0  0  0  0  0  0  0  0  0
   -3.7550   -2.3370    1.3220 O   0  0  0  0  0  0  0  0  0  0  0  0
   -2.4650   -0.2810    1.1010 C   0  0  2  0  0  0  0  0  0  0  0  0
   -2.2710   -0.3370    2.5230 O   0  0  0  0  0  0  0  0  0  0  0  0
   -1.2690   -0.9000    0.3440 C   0  0  1  0  0  0  0  0  0  0  0  0
   -1.4550   -2.2770    0.0470 O   0  0  0  0  0  0  0  0  0  0  0  0
   -0.8980   -3.0130    1.1370 C   0  0  0  0  0  0  0  0  0  0  0  0
  1  2  2  0
  2  3  1  0
  2  8  1  0
  3  4  1  0
  4  5  1  1
  4  6  1  0
  6  7  2  0
  6  8  1  0
  8  9  1  0
  9 10  2  0
  9 14  1  0
 10 11  1  0
 11 12  2  0
 12 13  1  0
 13 14  2  0
 14 15  1  0
 15 16  2  0
 15 17  1  0
 17 18  1  0
 19 18  1  1
 19 20  1  0
 26 19  1  1
 19 31  1  0
 20 21  1  0
 21 22  1  0
 22 23  1  1
 25 22  1  6
 23 24  1  0
 25 26  1  0
 25 27  1  0
 25 32  1  0
 26 47  1  0
 27 28  1  1
 27 45  1  0
 28 29  1  0
 28 31  1  0
 29 30  1  0
 32 33  1  1
 39 32  1  6
 34 33  1  1
 34 35  1  0
 34 40  1  0
 35 36  1  1
 35 38  1  0
 36 37  1  0
 38 43  1  0
 39 40  1  0
 39 43  1  0
 40 41  1  1
 41 42  1  0
 43 44  1  1
 43 45  1  0
 45 46  1  1
 45 47  1  0
 47 48  1  6
 48 49  1  0
M  END
>  <NetFormalCharge>  (62) 
0

$$$$
MLL
     RDKit          3D

 10  9  0  0  1  0  0  0  0  0999 V2000
    2.7100   -5.2100   -0.8370 N   0  0  0  0  0  0  0  0  0  0  0  0
    1.5160   -4.4650   -0.5300 C   0  0  1  0  0  0  0  0  0  0  0  0
    1.7290   -2.9510   -0.6190 C   0  0  0  0  0  0  0  0  0  0  0  0
    0.4900   -2.1040   -0.2670 C   0  0  0  0  0  0  0  0  0  0  0  0
    0.0090   -2.4520    1.1440 C   0  0  0  0  0  0  0  0  0  0  0  0
    0.7650   -0.6020   -0.3620 C   0  0  0  0  0  0  0  0  0  0  0  0
    0.4680   -4.9020   -1.5350 C   0  0  0  0  0  0  0  0  0  0  0  0
   -0.5590   -5.5080   -1.2590 O   0  0  0  0  0  0  0  0  0  0  0  0
    0.8780   -4.5570   -2.7920 O   0  0  0  0  0  0  0  0  0  0  0  0
    0.0070   -4.9540   -3.8560 C   0  0  0  0  0  0  0  0  0  0  0  0
  2  1  1  6
  2  3  1  0
  2  7  1  0
  3  4  1  0
  4  5  1  0
  4  6  1  0
  7  8  2  0
  7  9  1  0
  9 10  1  0
M  END
>  <NetFormalCharge>  (63) 
0

$$$$
MLM
     RDKit          3D

  7  6  0  0  0  0  0  0  0  0999 V2000
   -0.0700    0.0000   -1.2080 C   0  0  0  0  0  0  0  0  0  0  0  0
   -0.6380    0.0000   -2.4240 O   0  0  0  0  0  0  0  0  0  0  0  0
    1.1320    0.0000   -1.1030 O   0  0  0  0  0  0  0  0  0  0  0  0
   -0.9340   -0.0000    0.0260 C   0  0  0  0  0  0  0  0  0  0  0  0
   -0.0580   -0.0000    1.2520 C   0  0  0  0  0  0  0  0  0  0  0  0
    1.1480    0.0000    1.1350 O   0  0  0  0  0  0  0  0  0  0  0  0
   -0.6160   -0.0000    2.4790 N   0  0  0  0  0  0  0  0  0  0  0  0
  1  2  1  0
  1  3  2  0
  1  4  1  0
  4  5  1  0
  5  6  2  0
  5  7  1  0
M  END
>  <NetFormalCharge>  (64) 
0

$$$$
MLN
     RDKit          3D

 30 30  0  0  1  0  0  0  0  0999 V2000
    2.9750   -0.8880    0.1350 O   0  0  0  0  0  0  0  0  0  0  0  0
    4.5150   -0.7200    0.6000 P   0  0  0  0  0  0  0  0  0  0  0  0
    5.4720   -1.7230    0.0240 O   0  0  0  0  0  0  0  0  0  0  0  0
    4.8550    0.8240    0.2580 O   0  0  0  0  0  0  0  0  0  0  0  0
    4.4180   -0.7180    2.2140 O   0  0  0  0  0  0  0  0  0  0  0  0
    4.8910    1.2220   -1.1040 C   0  0  2  0  0  0  0  0  0  0  0  0
    5.9600    0.4040   -1.8170 C   0  0  0  0  0  0  0  0  0  0  0  0
    5.1740    2.7240   -1.2140 C   0  0  0  0  0  0  0  0  0  0  0  0
    4.0940    3.5640   -0.5220 C   0  0  0  0  0  0  0  0  0  0  0  0
    4.3380    5.0710   -0.6300 C   0  0  0  0  0  0  0  0  0  0  0  0
    3.2310    5.9110   -0.0110 C   0  0  0  0  0  0  0  0  0  0  0  0
    6.9920    0.0370   -1.2590 O   0  0  0  0  0  0  0  0  0  0  0  0
    5.6210    0.1170   -3.1310 N   0  0  0  0  0  0  0  0  0  0  0  0
    6.4660   -0.6620   -4.0050 C   0  0  1  0  0  0  0  0  0  0  0  0
    5.6610   -1.3980   -5.0850 C   0  0  0  0  0  0  0  0  0  0  0  0
    4.6560   -2.4370   -4.5470 C   0  0  0  0  0  0  0  0  0  0  0  0
    5.3940   -3.4820   -3.7060 C   0  0  0  0  0  0  0  0  0  0  0  0
    3.5460   -1.7950   -3.7130 C   0  0  0  0  0  0  0  0  0  0  0  0
    7.4600    0.3030   -4.6530 C   0  0  0  0  0  0  0  0  0  0  0  0
    8.6830   -0.3220   -4.8890 N   0  0  0  0  0  0  0  0  0  0  0  0
    7.1500    1.4540   -4.9460 O   0  0  0  0  0  0  0  0  0  0  0  0
    9.8430    0.2420   -5.4710 C   0  0  0  0  0  0  0  0  0  0  0  0
   10.9730   -0.5440   -5.6270 C   0  0  0  0  0  0  0  0  0  0  0  0
   12.1160    0.0120   -6.2010 C   0  0  0  0  0  0  0  0  0  0  0  0
   12.1130    1.3460   -6.6100 C   0  0  0  0  0  0  0  0  0  0  0  0
   10.9670    2.1230   -6.4450 C   0  0  0  0  0  0  0  0  0  0  0  0
    9.8240    1.5670   -5.8710 C   0  0  0  0  0  0  0  0  0  0  0  0
   13.2770    1.9110   -7.1940 N   0  0  0  0  0  0  0  0  0  0  0  0
   14.2980    1.1950   -7.3330 O   0  0  0  0  0  0  0  0  0  0  0  0
   13.2540    3.1130   -7.5550 O   0  0  0  0  0  0  0  0  0  0  0  0
  1  2  1  0
  2  3  2  0
  2  4  1  0
  2  5  1  0
  4  6  1  0
  6  7  1  0
  6  8  1  1
  7 12  2  0
  7 13  1  0
  8  9  1  0
  9 10  1  0
 10 11  1  0
 13 14  1  0
 14 15  1  6
 14 19  1  0
 15 16  1  0
 16 17  1  0
 16 18  1  0
 19 20  1  0
 19 21  2  0
 20 22  1  0
 22 23  2  0
 22 27  1  0
 23 24  1  0
 24 25  2  0
 25 26  1  0
 25 28  1  0
 26 27  2  0
 28 29  1  0
 28 30  2  0
M  CHG  2  28   1  29  -1
M  END
>  <NetFormalCharge>  (65) 
0

$$$$
MLP
     RDKit          3D

  8  8  0  0  0  0  0  0  0  0999 V2000
   -1.9070   -0.8220    0.6840 C   0  0  0  0  0  0  0  0  0  0  0  0
   -1.8850   -0.6780   -0.8390 C   0  0  0  0  0  0  0  0  0  0  0  0
   -1.0150    0.2340    0.0290 C   0  0  0  0  0  0  0  0  0  0  0  0
   -1.4230    1.6400    0.1550 N   0  0  0  0  0  0  0  0  0  0  0  0
    0.7830   -0.0650    0.0270 P   0  0  2  0  0  0  0  0  0  0  0  0
    1.4910    0.9240   -1.0270 O   0  0  0  0  0  0  0  0  0  0  0  0
    1.0610   -1.5310   -0.3760 O   0  0  0  0  0  0  0  0  0  0  0  0
    1.3500    0.1970    1.4400 O   0  0  0  0  0  0  0  0  0  0  0  0
  1  2  1  0
  1  3  1  0
  2  3  1  0
  3  4  1  0
  3  5  1  0
  5  6  1  6
  5  7  1  0
  5  8  2  0
M  CHG  1   7  -1
M  END
>  <NetFormalCharge>  (66) 
-1

$$$$
MLQ
     RDKit          3D

 32 34  0  0  1  0  0  0  0  0999 V2000
   -1.7510    0.4150   -0.4450 N   0  0  0  0  0  0  0  0  0  0  0  0
    4.5430   -0.8620   -1.4350 C   0  0  0  0  0  0  0  0  0  0  0  0
   -3.6930   -3.0030   -0.9620 O   0  0  0  0  0  0  0  0  0  0  0  0
    2.0850    1.9500   -0.2280 C   0  0  0  0  0  0  0  0  0  0  0  0
    1.5560    1.7070   -1.4930 C   0  0  0  0  0  0  0  0  0  0  0  0
    0.2900    1.1980   -1.6330 C   0  0  0  0  0  0  0  0  0  0  0  0
    5.4360    1.0650    1.9470 Cl  0  0  0  0  0  0  0  0  0  0  0  0
    5.1390   -0.1900    0.7850 C   0  0  0  0  0  0  0  0  0  0  0  0
    5.2630   -1.5180    1.1540 C   0  0  0  0  0  0  0  0  0  0  0  0
    5.0310   -2.5170    0.2270 C   0  0  0  0  0  0  0  0  0  0  0  0
    5.1860   -4.1830    0.6890 Cl  0  0  0  0  0  0  0  0  0  0  0  0
    4.7790    0.1370   -0.5100 C   0  0  0  0  0  0  0  0  0  0  0  0
    4.6660   -2.1890   -1.0670 C   0  0  0  0  0  0  0  0  0  0  0  0
    4.6220    1.8280   -0.9800 S   0  0  0  0  0  0  0  0  0  0  0  0
    5.8060    2.4790   -0.5380 O   0  0  0  0  0  0  0  0  0  0  0  0
    4.1940    1.8300   -2.3350 O   0  0  0  0  0  0  0  0  0  0  0  0
    3.3780    2.4690   -0.0960 N   0  0  0  0  0  0  0  0  0  0  0  0
    1.3290    1.6760    0.8980 C   0  0  0  0  0  0  0  0  0  0  0  0
    0.0420    1.1600    0.7680 C   0  0  0  0  0  0  0  0  0  0  0  0
   -0.4980    0.9130   -0.4980 C   0  0  0  0  0  0  0  0  0  0  0  0
   -1.1550    0.7130    1.9810 S   0  0  0  0  0  0  0  0  0  0  0  0
   -2.2780    0.2340    0.7170 C   0  0  0  0  0  0  0  0  0  0  0  0
   -3.8970   -0.4040    0.9990 S   0  0  0  0  0  0  0  0  0  0  0  0
   -4.4350   -0.6620   -0.7100 C   0  0  1  0  0  0  0  0  0  0  0  0
   -3.5790   -1.7240   -1.3510 C   0  0  0  0  0  0  0  0  0  0  0  0
   -2.7900   -1.4230   -2.2160 O   0  0  0  0  0  0  0  0  0  0  0  0
   -5.8980   -1.1100   -0.7220 C   0  0  0  0  0  0  0  0  0  0  0  0
   -6.7810    0.0190   -0.1860 C   0  0  0  0  0  0  0  0  0  0  0  0
   -8.2440   -0.4290   -0.1980 C   0  0  0  0  0  0  0  0  0  0  0  0
   -9.1270    0.6990    0.3390 C   0  0  0  0  0  0  0  0  0  0  0  0
  -10.5900    0.2520    0.3270 C   0  0  0  0  0  0  0  0  0  0  0  0
  -11.4730    1.3800    0.8630 C   0  0  0  0  0  0  0  0  0  0  0  0
  1 22  2  0
  2 13  2  0
  4 18  1  0
  5  4  2  0
  5  6  1  0
  6 20  2  0
  7  8  1  0
  8  9  1  0
  9 10  2  0
 10 13  1  0
 10 11  1  0
 12  8  2  0
 12  2  1  0
 14 17  1  0
 14 16  2  0
 14 12  1  0
 15 14  2  0
 17  4  1  0
 18 19  2  0
 19 21  1  0
 20 19  1  0
 20  1  1  0
 21 22  1  0
 22 23  1  0
 23 24  1  0
 24 25  1  0
 25 26  2  0
 25  3  1  0
 24 27  1  1
 27 28  1  0
 28 29  1  0
 29 30  1  0
 30 31  1  0
 31 32  1  0
M  END
>  <NetFormalCharge>  (67) 
0

$$$$
MLR
     RDKit          3D

 34 36  0  0  1  0  0  0  0  0999 V2000
    5.7920    1.4850    0.1550 C   0  0  1  0  0  0  0  0  0  0  0  0
    5.7180    0.0800    0.7590 C   0  0  1  0  0  0  0  0  0  0  0  0
    4.5920   -0.7020    0.0750 C   0  0  2  0  0  0  0  0  0  0  0  0
    3.2790    0.0700    0.2360 C   0  0  1  0  0  0  0  0  0  0  0  0
    3.4470    1.4750   -0.3480 C   0  0  1  0  0  0  0  0  0  0  0  0
    2.1590    2.2730   -0.1380 C   0  0  0  0  0  0  0  0  0  0  0  0
    6.1120    1.3900   -1.2350 O   0  0  0  0  0  0  0  0  0  0  0  0
    6.9610   -0.5940    0.5530 O   0  0  0  0  0  0  0  0  0  0  0  0
    4.4670   -1.9890    0.6830 O   0  0  0  0  0  0  0  0  0  0  0  0
    2.2350   -0.6140   -0.4600 O   0  0  0  0  0  0  0  0  0  0  0  0
    4.5300    2.1360    0.3100 O   0  0  0  0  0  0  0  0  0  0  0  0
    2.2820    3.5500   -0.7660 O   0  0  0  0  0  0  0  0  0  0  0  0
    1.6120   -1.6510    0.3010 C   0  0  2  0  0  0  0  0  0  0  0  0
    0.7420   -2.5090   -0.6220 C   0  0  1  0  0  0  0  0  0  0  0  0
   -0.3680   -1.6390   -1.2190 C   0  0  2  0  0  0  0  0  0  0  0  0
   -1.1760   -1.0080   -0.0800 C   0  0  1  0  0  0  0  0  0  0  0  0
   -0.2320   -0.2080    0.8220 C   0  0  1  0  0  0  0  0  0  0  0  0
   -1.0210    0.3760    1.9960 C   0  0  0  0  0  0  0  0  0  0  0  0
    1.5460   -3.0450   -1.6740 O   0  0  0  0  0  0  0  0  0  0  0  0
   -1.2290   -2.4470   -2.0240 O   0  0  0  0  0  0  0  0  0  0  0  0
   -2.1690   -0.1370   -0.6240 O   0  0  0  0  0  0  0  0  0  0  0  0
    0.7940   -1.0690    1.3190 O   0  0  0  0  0  0  0  0  0  0  0  0
   -0.1610    1.2010    2.7840 O   0  0  0  0  0  0  0  0  0  0  0  0
   -3.3810   -0.7970   -0.9950 C   0  0  2  0  0  0  0  0  0  0  0  0
   -4.2410    0.1500   -1.8370 C   0  0  1  0  0  0  0  0  0  0  0  0
   -4.6160    1.3720   -0.9940 C   0  0  2  0  0  0  0  0  0  0  0  0
   -5.3380    0.9030    0.2730 C   0  0  1  0  0  0  0  0  0  0  0  0
   -4.4360   -0.0720    1.0340 C   0  0  1  0  0  0  0  0  0  0  0  0
   -5.1740   -0.5920    2.2690 C   0  0  0  0  0  0  0  0  0  0  0  0
   -3.5030    0.5700   -2.9860 O   0  0  0  0  0  0  0  0  0  0  0  0
   -5.4790    2.2260   -1.7470 O   0  0  0  0  0  0  0  0  0  0  0  0
   -5.6290    2.0300    1.1020 O   0  0  0  0  0  0  0  0  0  0  0  0
   -4.1000   -1.1700    0.1830 O   0  0  0  0  0  0  0  0  0  0  0  0
   -4.2930   -1.4110    3.0410 O   0  0  0  0  0  0  0  0  0  0  0  0
  1  2  1  0
  1  7  1  6
  1 11  1  0
  2  3  1  0
  2  8  1  6
  3  9  1  1
  3  4  1  0
  4  5  1  0
  4 10  1  6
  5  6  1  1
  5 11  1  0
  6 12  1  0
 13 10  1  6
 13 14  1  0
 13 22  1  0
 14 19  1  6
 14 15  1  0
 15 20  1  6
 15 16  1  0
 16 17  1  0
 16 21  1  6
 17 22  1  0
 17 18  1  1
 18 23  1  0
 24 21  1  1
 24 25  1  0
 24 33  1  0
 25 30  1  6
 25 26  1  0
 26 27  1  0
 26 31  1  6
 27 28  1  0
 27 32  1  1
 28 33  1  0
 28 29  1  1
 29 34  1  0
M  END
>  <NetFormalCharge>  (68) 
0

$$$$
MLS
     RDKit          3D

 25 27  0  0  0  0  0  0  0  0999 V2000
   -2.1710   -0.7910    0.4270 C   0  0  0  0  0  0  0  0  0  0  0  0
   -3.2280   -0.7710   -0.4290 C   0  0  0  0  0  0  0  0  0  0  0  0
   -4.1160    0.3190   -0.4120 C   0  0  0  0  0  0  0  0  0  0  0  0
   -3.8940    1.3820    0.4990 C   0  0  0  0  0  0  0  0  0  0  0  0
   -4.7810    2.4710    0.5160 C   0  0  0  0  0  0  0  0  0  0  0  0
   -5.8390    2.4910   -0.3400 C   0  0  0  0  0  0  0  0  0  0  0  0
   -6.0580    1.4460   -1.2350 C   0  0  0  0  0  0  0  0  0  0  0  0
    6.8070    1.2810    0.0360 C   0  0  0  0  0  0  0  0  0  0  0  0
    5.3060    1.4110   -0.0080 C   0  0  0  0  0  0  0  0  0  0  0  0
    4.5210    0.2880   -0.2040 C   0  0  0  0  0  0  0  0  0  0  0  0
    5.0980   -0.9240   -0.3550 F   0  0  0  0  0  0  0  0  0  0  0  0
    3.1290    0.4120   -0.2430 C   0  0  0  0  0  0  0  0  0  0  0  0
    2.5430    1.6700   -0.0850 C   0  0  0  0  0  0  0  0  0  0  0  0
    3.3380    2.7790    0.1090 C   0  0  0  0  0  0  0  0  0  0  0  0
    4.7150    2.6500    0.1530 C   0  0  0  0  0  0  0  0  0  0  0  0
    2.2830   -0.7800   -0.4520 C   0  0  0  0  0  0  0  0  0  0  0  0
    2.7970   -1.8730   -0.5900 O   0  0  0  0  0  0  0  0  0  0  0  0
    0.9420   -0.6570   -0.4900 N   0  0  0  0  0  0  0  0  0  0  0  0
    0.1400   -1.7880   -0.6880 N   0  0  0  0  0  0  0  0  0  0  0  0
   -1.0560   -2.1550    0.3980 S   0  0  0  0  0  0  0  0  0  0  0  0
   -0.4390   -2.1970    1.6770 O   0  0  0  0  0  0  0  0  0  0  0  0
   -1.7760   -3.2490   -0.1540 O   0  0  0  0  0  0  0  0  0  0  0  0
   -5.2190    0.3750   -1.2800 C   0  0  0  0  0  0  0  0  0  0  0  0
   -2.7900    1.3260    1.3680 C   0  0  0  0  0  0  0  0  0  0  0  0
   -1.9520    0.2550    1.3230 C   0  0  0  0  0  0  0  0  0  0  0  0
  1  2  2  0
  1 25  1  0
  2  3  1  0
  3 23  2  0
  3  4  1  0
  4  5  2  0
  5  6  1  0
  7  6  2  0
  9  8  1  0
 10  9  2  0
 10 11  1  0
 12 10  1  0
 13 14  1  0
 13 12  2  0
 14 15  2  0
 15  9  1  0
 16 12  1  0
 16 18  1  0
 17 16  2  0
 19 18  1  0
 19 20  1  0
 20 21  2  0
 20  1  1  0
 22 20  2  0
 23  7  1  0
 24  4  1  0
 25 24  2  0
M  END
>  <NetFormalCharge>  (69) 
0

$$$$
MLT
     RDKit          3D

  9  8  0  0  1  0  0  0  0  0999 V2000
    1.8710    0.1840    0.0570 C   0  0  0  0  0  0  0  0  0  0  0  0
    2.6370   -0.5120   -0.5650 O   0  0  0  0  0  0  0  0  0  0  0  0
    2.2640    1.3920    0.4910 O   0  0  0  0  0  0  0  0  0  0  0  0
    0.4730   -0.3000    0.3420 C   0  0  2  0  0  0  0  0  0  0  0  0
    0.3310   -1.6450   -0.1210 O   0  0  0  0  0  0  0  0  0  0  0  0
   -0.5340    0.5970   -0.3810 C   0  0  0  0  0  0  0  0  0  0  0  0
   -1.9340    0.1890    0.0000 C   0  0  0  0  0  0  0  0  0  0  0  0
   -2.1080   -0.7250    0.7710 O   0  0  0  0  0  0  0  0  0  0  0  0
   -2.9870    0.8410   -0.5160 O   0  0  0  0  0  0  0  0  0  0  0  0
  1  2  2  0
  1  3  1  0
  1  4  1  0
  4  5  1  6
  4  6  1  0
  6  7  1  0
  7  8  2  0
  7  9  1  0
M  END
>  <NetFormalCharge>  (70) 
0

$$$$
MLU
     RDKit          3D

 10  9  0  0  1  0  0  0  0  0999 V2000
    0.5150   -1.4160   -0.5040 N   0  0  0  0  0  0  0  0  0  0  0  0
    1.1920   -2.3930    0.3590 C   0  0  0  0  0  0  0  0  0  0  0  0
    0.3800   -0.1190    0.1730 C   0  0  1  0  0  0  0  0  0  0  0  0
    1.6490    0.6740   -0.0040 C   0  0  0  0  0  0  0  0  0  0  0  0
    2.3580    0.4740   -0.9620 O   0  0  0  0  0  0  0  0  0  0  0  0
   -0.7940    0.6530   -0.4320 C   0  0  0  0  0  0  0  0  0  0  0  0
   -2.0980   -0.0920   -0.1430 C   0  0  0  0  0  0  0  0  0  0  0  0
   -2.3550   -0.1030    1.3660 C   0  0  0  0  0  0  0  0  0  0  0  0
   -3.2560    0.6120   -0.8530 C   0  0  0  0  0  0  0  0  0  0  0  0
    1.9920    1.6040    0.9010 O   0  0  0  0  0  0  0  0  0  0  0  0
  1  2  1  0
  1  3  1  0
  3  4  1  0
  3  6  1  6
  4  5  2  0
  4 10  1  0
  6  7  1  0
  7  8  1  0
  7  9  1  0
M  END
>  <NetFormalCharge>  (71) 
0

$$$$
MLV
     RDKit          3D

 26 28  0  0  0  0  0  0  0  0999 V2000
    0.0200   -0.7710    0.5130 C   0  0  0  0  0  0  0  0  0  0  0  0
   -1.0400    0.2380    0.3120 C   0  0  0  0  0  0  0  0  0  0  0  0
   -3.3680    0.8020    0.0260 C   0  0  0  0  0  0  0  0  0  0  0  0
   -2.3760   -0.1590    0.2160 C   0  0  0  0  0  0  0  0  0  0  0  0
   -0.7100    1.5930    0.2220 C   0  0  0  0  0  0  0  0  0  0  0  0
   -1.7000    2.5350    0.0350 C   0  0  0  0  0  0  0  0  0  0  0  0
   -3.0230    2.1480   -0.0650 C   0  0  0  0  0  0  0  0  0  0  0  0
   -4.7900    0.3900   -0.0820 C   0  0  0  0  0  0  0  0  0  0  0  0
   -7.4420   -0.3790   -0.2850 C   0  0  0  0  0  0  0  0  0  0  0  0
   -7.0830    0.6350    0.5840 C   0  0  0  0  0  0  0  0  0  0  0  0
   -5.7620    1.0230    0.6890 C   0  0  0  0  0  0  0  0  0  0  0  0
   -6.4820   -1.0030   -1.0620 C   0  0  0  0  0  0  0  0  0  0  0  0
   -5.1580   -0.6280   -0.9610 C   0  0  0  0  0  0  0  0  0  0  0  0
   -2.7040   -1.4660    0.3060 F   0  0  0  0  0  0  0  0  0  0  0  0
   -0.2690   -1.9490    0.5850 O   0  0  0  0  0  0  0  0  0  0  0  0
    1.3080   -0.3850    0.6110 N   0  0  0  0  0  0  0  0  0  0  0  0
    2.3130   -1.3420    0.8010 N   0  0  0  0  0  0  0  0  0  0  0  0
    3.5940   -1.4170   -0.2450 S   0  0  0  0  0  0  0  0  0  0  0  0
    4.4990   -2.3690    0.2960 O   0  0  0  0  0  0  0  0  0  0  0  0
    3.0410   -1.5250   -1.5500 O   0  0  0  0  0  0  0  0  0  0  0  0
    4.4130    0.1420   -0.1800 C   0  0  0  0  0  0  0  0  0  0  0  0
    4.0320    1.1590   -1.0350 C   0  0  0  0  0  0  0  0  0  0  0  0
    4.6740    2.3820   -0.9840 C   0  0  0  0  0  0  0  0  0  0  0  0
    5.6980    2.5880   -0.0780 C   0  0  0  0  0  0  0  0  0  0  0  0
    6.0790    1.5700    0.7770 C   0  0  0  0  0  0  0  0  0  0  0  0
    5.4330    0.3490    0.7290 C   0  0  0  0  0  0  0  0  0  0  0  0
  1  2  1  0
  1 16  1  0
  2  5  2  0
  3  7  1  0
  4  3  2  0
  4  2  1  0
  5  6  1  0
  7  6  2  0
  8 11  2  0
  8  3  1  0
  9 10  2  0
 10 11  1  0
 12  9  1  0
 12 13  2  0
 13  8  1  0
 14  4  1  0
 15  1  2  0
 17 16  1  0
 17 18  1  0
 18 20  2  0
 18 21  1  0
 19 18  2  0
 21 26  1  0
 21 22  2  0
 22 23  1  0
 23 24  2  0
 25 24  1  0
 26 25  2  0
M  END
>  <NetFormalCharge>  (72) 
0

$$$$
MLW
     RDKit          3D

 16 18  0  0  0  0  0  0  0  0999 V2000
    1.1020    0.3010    0.0010 C   0  0  0  0  0  0  0  0  0  0  0  0
    2.2880    1.0740    0.0000 C   0  0  0  0  0  0  0  0  0  0  0  0
    3.6220    0.6100    0.0000 C   0  0  0  0  0  0  0  0  0  0  0  0
   -0.2590    0.8540    0.0010 C   0  0  0  0  0  0  0  0  0  0  0  0
   -0.7730    2.1520    0.0010 C   0  0  0  0  0  0  0  0  0  0  0  0
   -2.1350    2.3470    0.0000 C   0  0  0  0  0  0  0  0  0  0  0  0
   -2.9990    1.2610    0.0000 C   0  0  0  0  0  0  0  0  0  0  0  0
   -2.5070   -0.0270    0.0000 C   0  0  0  0  0  0  0  0  0  0  0  0
   -1.1310   -0.2470    0.0000 C   0  0  0  0  0  0  0  0  0  0  0  0
    2.1400    2.2870   -0.0010 O   0  0  0  0  0  0  0  0  0  0  0  0
    4.0680   -0.6780    0.0010 C   0  0  0  0  0  0  0  0  0  0  0  0
    3.3380   -1.8680    0.0010 C   0  0  0  0  0  0  0  0  0  0  0  0
    1.9880   -2.0580    0.0010 C   0  0  0  0  0  0  0  0  0  0  0  0
    0.9660   -1.0930   -0.0050 C   0  0  0  0  0  0  0  0  0  0  0  0
   -0.3720   -1.4010    0.0000 N   0  0  0  0  0  0  0  0  0  0  0  0
   -3.6010   -1.3740   -0.0000 Cl  0  0  0  0  0  0  0  0  0  0  0  0
  1  4  1  0
  2  1  1  0
  2 10  2  0
  3  2  1  0
  4  5  2  0
  5  6  1  0
  7  6  2  0
  8  7  1  0
  9  4  1  0
  9  8  2  0
 11  3  2  0
 12 11  1  0
 12 13  2  0
 13 14  1  0
 14 15  1  0
 14  1  2  0
 15  9  1  0
 16  8  1  0
M  END
>  <NetFormalCharge>  (73) 
0

$$$$
MLX
     RDKit          3D

 24 24  0  0  0  0  0  0  0  0999 V2000
    2.7530    2.6070   -0.5320 C   0  0  0  0  0  0  0  0  0  0  0  0
    1.5080    2.3450    0.2780 C   0  0  0  0  0  0  0  0  0  0  0  0
    0.7710    3.2620    0.5700 O   0  0  0  0  0  0  0  0  0  0  0  0
    1.2160    1.0910    0.6760 N   0  0  0  0  0  0  0  0  0  0  0  0
   -0.0490    0.8170    1.3630 C   0  0  0  0  0  0  0  0  0  0  0  0
   -1.1230    0.4660    0.3320 C   0  0  0  0  0  0  0  0  0  0  0  0
   -2.4440    0.1800    1.0500 C   0  0  0  0  0  0  0  0  0  0  0  0
   -3.4730   -0.1570    0.0630 N   0  0  0  0  0  0  0  0  0  0  0  0
   -4.7250   -0.4480    0.4670 C   0  0  0  0  0  0  0  0  0  0  0  0
   -5.0000   -0.4320    1.6480 O   0  0  0  0  0  0  0  0  0  0  0  0
   -5.7840   -0.7940   -0.5480 C   0  0  0  0  0  0  0  0  0  0  0  0
   -6.9910   -1.0560    0.1080 F   0  0  0  0  0  0  0  0  0  0  0  0
   -5.9540    0.2800   -1.4290 F   0  0  0  0  0  0  0  0  0  0  0  0
   -5.3880   -1.9280   -1.2670 F   0  0  0  0  0  0  0  0  0  0  0  0
    2.1200    0.0510    0.4340 C   0  0  0  0  0  0  0  0  0  0  0  0
    2.7670   -0.5700    1.4950 C   0  0  0  0  0  0  0  0  0  0  0  0
    3.6590   -1.5960    1.2530 C   0  0  0  0  0  0  0  0  0  0  0  0
    3.9080   -2.0060   -0.0440 C   0  0  0  0  0  0  0  0  0  0  0  0
    4.8690   -3.1020   -0.3010 N   0  0  0  0  0  0  0  0  0  0  0  0
    5.0930   -3.4610   -1.4430 O   0  0  0  0  0  0  0  0  0  0  0  0
    5.4360   -3.6450    0.6310 O   0  0  0  0  0  0  0  0  0  0  0  0
    3.2660   -1.3900   -1.1030 C   0  0  0  0  0  0  0  0  0  0  0  0
    2.3680   -0.3670   -0.8670 C   0  0  0  0  0  0  0  0  0  0  0  0
    2.9450    4.3830   -0.7790 Cl  0  0  0  0  0  0  0  0  0  0  0  0
  1  2  1  0
  1 24  1  0
  2  4  1  0
  2  3  2  0
  4  5  1  0
  5  6  1  0
  6  7  1  0
  7  8  1  0
  9  8  1  0
  9 11  1  0
 10  9  2  0
 11 12  1  0
 13 11  1  0
 14 11  1  0
 15  4  1  0
 16 15  2  0
 17 16  1  0
 18 22  1  0
 18 17  2  0
 19 18  1  0
 20 19  2  0
 21 19  1  0
 22 23  2  0
 23 15  1  0
M  CHG  2  19   1  21  -1
M  END
>  <NetFormalCharge>  (74) 
0

$$$$
MLY
     RDKit          3D

 12 11  0  0  1  0  0  0  0  0999 V2000
   -1.7960   -0.0120   -2.2010 N   0  0  0  0  0  0  0  0  0  0  0  0
   -0.4080    0.4670   -2.2560 C   0  0  1  0  0  0  0  0  0  0  0  0
    0.3520   -0.0330   -1.0260 C   0  0  0  0  0  0  0  0  0  0  0  0
   -0.3210    0.4960    0.2400 C   0  0  0  0  0  0  0  0  0  0  0  0
    0.4390   -0.0030    1.4700 C   0  0  0  0  0  0  0  0  0  0  0  0
   -0.2330    0.5260    2.7370 C   0  0  0  0  0  0  0  0  0  0  0  0
    0.4960    0.0450    3.9170 N   0  0  0  0  0  0  0  0  0  0  0  0
   -0.1970    0.5870    5.0930 C   0  0  0  0  0  0  0  0  0  0  0  0
    0.3210   -1.4120    3.9580 C   0  0  0  0  0  0  0  0  0  0  0  0
    0.2540   -0.0540   -3.5040 C   0  0  0  0  0  0  0  0  0  0  0  0
   -0.0890   -1.1130   -3.9730 O   0  0  0  0  0  0  0  0  0  0  0  0
    1.2270    0.6560   -4.0950 O   0  0  0  0  0  0  0  0  0  0  0  0
  2  1  1  1
  2  3  1  0
  2 10  1  0
  3  4  1  0
  4  5  1  0
  5  6  1  0
  6  7  1  0
  7  8  1  0
  7  9  1  0
 10 11  2  0
 10 12  1  0
M  END
>  <NetFormalCharge>  (75) 
0

$$$$
MLZ
     RDKit          3D

 11 10  0  0  1  0  0  0  0  0999 V2000
    0.3060   -2.1260   -2.6010 N   0  0  0  0  0  0  0  0  0  0  0  0
    0.1640   -0.6960   -2.6950 C   0  0  1  0  0  0  0  0  0  0  0  0
    1.1720    0.0500   -1.8190 C   0  0  0  0  0  0  0  0  0  0  0  0
    1.0290   -0.2100   -0.3140 C   0  0  0  0  0  0  0  0  0  0  0  0
    2.0180    0.5950    0.5360 C   0  0  0  0  0  0  0  0  0  0  0  0
    1.9090    0.2860    2.0310 C   0  0  0  0  0  0  0  0  0  0  0  0
    2.8850    1.0340    2.8140 N   0  0  0  0  0  0  0  0  0  0  0  0
    2.7950    0.6880    4.2250 C   0  0  0  0  0  0  0  0  0  0  0  0
    0.3730   -0.3380   -4.1530 C   0  0  0  0  0  0  0  0  0  0  0  0
    1.1590   -0.8910   -4.9110 O   0  0  0  0  0  0  0  0  0  0  0  0
   -0.3890    0.7230   -4.5290 O   0  0  0  0  0  0  0  0  0  0  0  0
  2  1  1  6
  2  3  1  0
  2  9  1  0
  3  4  1  0
  4  5  1  0
  5  6  1  0
  6  7  1  0
  7  8  1  0
  9 10  2  0
  9 11  1  0
M  END
>  <NetFormalCharge>  (76) 
0

$$$$
MN
     RDKit          2D

  1  0  0  0  0  0  0  0  0  0999 V2000
    0.0000    0.0000    0.0000 Mn  0  0  0  0  0 15  0  0  0  0  0  0
M  CHG  1   1   2
M  END
>  <LigandName>  (77) 
MN

>  <Denticity>  (77) 
0

>  <DenticityDescription>  (77) 
non-dentate

>  <Delta_cm-1>  (77) 
20000

>  <DeltaConfidence>  (77) 
default

>  <SMILES>  (77) 
[Mn+2]

>  <NetFormalCharge>  (77) 
2

$$$$
MPD
     RDKit          3D

  8  7  0  0  1  0  0  0  0  0999 V2000
   -1.2970   -0.4630   -1.4620 C   0  0  0  0  0  0  0  0  0  0  0  0
   -1.1180   -0.0870    0.0100 C   0  0  0  0  0  0  0  0  0  0  0  0
   -1.0610    1.3360    0.1340 O   0  0  0  0  0  0  0  0  0  0  0  0
   -2.3000   -0.6220    0.8200 C   0  0  0  0  0  0  0  0  0  0  0  0
    0.1810   -0.6980    0.5390 C   0  0  0  0  0  0  0  0  0  0  0  0
    1.3630   -0.1620   -0.2720 C   0  0  1  0  0  0  0  0  0  0  0  0
    1.4910    1.2450   -0.0550 O   0  0  0  0  0  0  0  0  0  0  0  0
    2.6470   -0.8650    0.1730 C   0  0  0  0  0  0  0  0  0  0  0  0
  1  2  1  0
  2  3  1  0
  2  4  1  0
  2  5  1  0
  5  6  1  0
  6  7  1  0
  6  8  1  1
M  END
>  <LigandName>  (78) 
MPD

>  <Denticity>  (78) 
2

>  <DenticityDescription>  (78) 
bidentate

>  <Delta_cm-1>  (78) 
20000

>  <DeltaConfidence>  (78) 
estimated

>  <SMILES>  (78) 
[H]OC(C([H])([H])[H])(C([H])([H])[H])C([H])([H])[C@@]([H])(O[H])C([H])([H])[H]

>  <NetFormalCharge>  (78) 
0

$$$$
NA
     RDKit          2D

  1  0  0  0  0  0  0  0  0  0999 V2000
    0.0000    0.0000    0.0000 Na  0  0  0  0  0 15  0  0  0  0  0  0
M  CHG  1   1   1
M  END
>  <LigandName>  (79) 
NA

>  <Denticity>  (79) 
0

>  <DenticityDescription>  (79) 
non-dentate

>  <Delta_cm-1>  (79) 
20000

>  <DeltaConfidence>  (79) 
default

>  <SMILES>  (79) 
[Na+]

>  <NetFormalCharge>  (79) 
1

$$$$
NAD
     RDKit          3D

 44 48  0  0  1  0  0  0  0  0999 V2000
   -0.8870   -0.8130   -0.6760 P   0  0  2  0  0  0  0  0  0  0  0  0
   -1.2580    0.1020   -1.7780 O   0  0  0  0  0  0  0  0  0  0  0  0
   -0.2490   -2.1590   -1.2870 O   0  0  0  0  0  0  0  0  0  0  0  0
   -2.2000   -1.1820    0.1800 O   0  0  0  0  0  0  0  0  0  0  0  0
   -3.1590   -1.7060   -0.7410 C   0  0  0  0  0  0  0  0  0  0  0  0
   -4.4370   -2.0790    0.0120 C   0  0  1  0  0  0  0  0  0  0  0  0
   -5.0680   -0.8930    0.5230 O   0  0  0  0  0  0  0  0  0  0  0  0
   -5.4340   -2.7540   -0.9500 C   0  0  1  0  0  0  0  0  0  0  0  0
   -5.7450   -4.0780   -0.5120 O   0  0  0  0  0  0  0  0  0  0  0  0
   -6.6930   -1.8500   -0.8810 C   0  0  1  0  0  0  0  0  0  0  0  0
   -7.8850   -2.6380   -0.8620 O   0  0  0  0  0  0  0  0  0  0  0  0
   -6.4930   -1.1160    0.4690 C   0  0  2  0  0  0  0  0  0  0  0  0
   -7.2160    0.1580    0.4790 N   0  0  0  0  0  0  0  0  0  0  0  0
   -6.7230    1.3680    0.0890 C   0  0  0  0  0  0  0  0  0  0  0  0
   -7.6350    2.2860    0.2290 N   0  0  0  0  0  0  0  0  0  0  0  0
   -8.7680    1.7250    0.7170 C   0  0  0  0  0  0  0  0  0  0  0  0
  -10.0420    2.2090    1.0590 C   0  0  0  0  0  0  0  0  0  0  0  0
  -10.3520    3.5500    0.9160 N   0  0  0  0  0  0  0  0  0  0  0  0
  -10.9420    1.3480    1.5240 N   0  0  0  0  0  0  0  0  0  0  0  0
  -10.6550    0.0670    1.6630 C   0  0  0  0  0  0  0  0  0  0  0  0
   -9.4760   -0.4310    1.3550 N   0  0  0  0  0  0  0  0  0  0  0  0
   -8.5140    0.3520    0.8780 C   0  0  0  0  0  0  0  0  0  0  0  0
    0.1910   -0.0930    0.2790 O   0  0  0  0  0  0  0  0  0  0  0  0
    1.2040    0.7070   -0.6830 P   0  0  2  0  0  0  0  0  0  0  0  0
    0.5560    2.0420   -1.1150 O   0  0  0  0  0  0  0  0  0  0  0  0
    1.5090   -0.1460   -1.9340 O   0  0  0  0  0  0  0  0  0  0  0  0
    2.5730    1.0070    0.1090 O   0  0  0  0  0  0  0  0  0  0  0  0
    3.4690    1.6100   -0.8270 C   0  0  0  0  0  0  0  0  0  0  0  0
    4.7970    1.9210   -0.1350 C   0  0  1  0  0  0  0  0  0  0  0  0
    5.4670    0.6980    0.2410 O   0  0  0  0  0  0  0  0  0  0  0  0
    5.7670    2.6180   -1.1150 C   0  0  1  0  0  0  0  0  0  0  0  0
    5.7450    4.0330   -0.9210 O   0  0  0  0  0  0  0  0  0  0  0  0
    7.1540    2.0400   -0.7460 C   0  0  1  0  0  0  0  0  0  0  0  0
    8.0310    3.0820   -0.3140 O   0  0  0  0  0  0  0  0  0  0  0  0
    6.8540    1.0620    0.4110 C   0  0  2  0  0  0  0  0  0  0  0  0
    7.7080   -0.1250    0.3100 N   0  0  0  0  0  0  0  0  0  0  0  0
    8.7630   -0.2220    1.0930 C   0  0  0  0  0  0  0  0  0  0  0  0
    9.6010   -1.3350    1.0170 C   0  0  0  0  0  0  0  0  0  0  0  0
   10.7890   -1.4420    1.8910 C   0  0  0  0  0  0  0  0  0  0  0  0
   11.0450   -0.5530    2.6800 O   0  0  0  0  0  0  0  0  0  0  0  0
   11.5880   -2.5240    1.8130 N   0  0  0  0  0  0  0  0  0  0  0  0
    9.2960   -2.3520    0.1040 C   0  0  0  0  0  0  0  0  0  0  0  0
    8.1730   -2.2040   -0.6900 C   0  0  0  0  0  0  0  0  0  0  0  0
    7.3950   -1.0670   -0.5590 C   0  0  0  0  0  0  0  0  0  0  0  0
  1  2  2  0
  1  3  1  6
  1  4  1  0
  1 23  1  0
  4  5  1  0
  6  5  1  6
  6  7  1  0
  6  8  1  0
  7 12  1  0
  8  9  1  1
  8 10  1  0
 10 11  1  1
 10 12  1  0
 12 13  1  6
 13 14  1  0
 13 22  1  0
 14 15  2  0
 15 16  1  0
 16 17  1  0
 16 22  2  0
 17 18  1  0
 17 19  2  0
 19 20  1  0
 20 21  2  0
 21 22  1  0
 23 24  1  0
 24 25  2  0
 24 26  1  6
 24 27  1  0
 27 28  1  0
 29 28  1  6
 29 30  1  0
 29 31  1  0
 30 35  1  0
 31 32  1  1
 31 33  1  0
 33 34  1  1
 33 35  1  0
 35 36  1  6
 36 37  2  0
 36 44  1  0
 37 38  1  0
 38 39  1  0
 38 42  2  0
 39 40  2  0
 39 41  1  0
 42 43  1  0
 43 44  2  0
M  CHG  2  26  -1  36   1
M  END
>  <LigandName>  (80) 
NAD

>  <Denticity>  (80) 
14

>  <DenticityDescription>  (80) 
14-dentate

>  <Delta_cm-1>  (80) 
22785

>  <DeltaConfidence>  (80) 
estimated

>  <SMILES>  (80) 
[H]O[C@@]1([H])[C@@]([H])(O[H])[C@]([H])(n2c([H])nc3c(N([H])[H])nc([H])nc32)O[C@]1([H])C([H])([H])O[P@](=O)(O[H])O[P@](=O)([O-])OC([H])([H])[C@@]1([H])O[C@@]([H])([n+]2c([H])c([H])c([H])c(C(=O)N([H])[H])c2[H])[C@]([H])(O[H])[C@]1([H])O[H]

>  <NetFormalCharge>  (80) 
0

$$$$
NAG
     RDKit          3D

 15 15  0  0  1  0  0  0  0  0999 V2000
    0.1850    1.0820   -0.4210 C   0  0  2  0  0  0  0  0  0  0  0  0
    0.7900   -0.2200    0.1120 C   0  0  1  0  0  0  0  0  0  0  0  0
   -0.1240   -1.3900   -0.2650 C   0  0  2  0  0  0  0  0  0  0  0  0
   -1.5260   -1.1290    0.2940 C   0  0  1  0  0  0  0  0  0  0  0  0
   -2.0420    0.2070   -0.2460 C   0  0  1  0  0  0  0  0  0  0  0  0
   -3.4170    0.5040    0.3550 C   0  0  0  0  0  0  0  0  0  0  0  0
    3.1970    0.1570    0.0760 C   0  0  0  0  0  0  0  0  0  0  0  0
    4.5590   -0.0520   -0.5330 C   0  0  0  0  0  0  0  0  0  0  0  0
    2.1140   -0.4220   -0.4800 N   0  0  0  0  0  0  0  0  0  0  0  0
    1.0030    2.1850   -0.0240 O   0  0  0  0  0  0  0  0  0  0  0  0
    0.3950   -2.6000    0.2910 O   0  0  0  0  0  0  0  0  0  0  0  0
   -2.4050   -2.1800   -0.1140 O   0  0  0  0  0  0  0  0  0  0  0  0
   -1.1300    1.2480    0.1130 O   0  0  0  0  0  0  0  0  0  0  0  0
   -3.9490    1.6910   -0.2360 O   0  0  0  0  0  0  0  0  0  0  0  0
    3.0740    0.8450    1.0670 O   0  0  0  0  0  0  0  0  0  0  0  0
  1  2  1  0
  1 10  1  1
  1 13  1  0
  2  3  1  0
  2  9  1  6
  3  4  1  0
  3 11  1  1
  4  5  1  0
  4 12  1  6
  5  6  1  1
  5 13  1  0
  6 14  1  0
  7  8  1  0
  7  9  1  0
  7 15  2  0
M  END
>  <LigandName>  (81) 
NAG

>  <Denticity>  (81) 
4

>  <DenticityDescription>  (81) 
tetradentate

>  <Delta_cm-1>  (81) 
20000

>  <DeltaConfidence>  (81) 
estimated

>  <SMILES>  (81) 
[H]OC([H])([H])[C@@]1([H])O[C@@]([H])(O[H])[C@]([H])(N([H])C(=O)C([H])([H])[H])[C@@]([H])(O[H])[C@]1([H])O[H]

>  <NetFormalCharge>  (81) 
0

$$$$

     RDKit          3D

  3  2  0  0  0  0  0  0  0  0999 V2000
   -0.8340   -0.2715    0.5725 N   0  0  0  0  0  0  0  0  0  0  0  0
    0.4036   -0.0940    0.3517 C   0  0  0  0  0  0  0  0  0  0  0  0
    1.9742    0.1314    0.0712 S   0  0  0  0  0  0  0  0  0  0  0  0
  1  2  2  0
  2  3  2  0
M  END
>  <LigandName>  (82) 
NCS⁻ (N-bound)

>  <SMILES>  (82) 
N=C=S

>  <FieldStrength>  (82) 
moderate

>  <MolecularWeight>  (82) 
59.09

>  <HDonors>  (82) 
1

>  <HAcceptors>  (82) 
2

>  <LogP>  (82) 
0.67

>  <NumAtoms>  (82) 
4

>  <NetFormalCharge>  (82) 
0

$$$$

     RDKit          3D

  3  2  0  0  0  0  0  0  0  0999 V2000
   -0.8410   -0.2086    0.5998 N   0  0  0  0  0  0  0  0  0  0  0  0
    0.4007   -0.0514    0.3869 C   0  0  0  0  0  0  0  0  0  0  0  0
    1.9766    0.1483    0.1164 S   0  0  0  0  0  0  0  0  0  0  0  0
  1  2  2  0
  2  3  2  0
M  END
>  <LigandName>  (83) 
NCS⁻ (N-bound)

>  <SMILES>  (83) 
N=C=S

>  <FieldStrength>  (83) 
moderate

>  <Delta_cm-1>  (83) 
20000

>  <DonorAtom>  (83) 
N

>  <Denticity>  (83) 
0

>  <DenticityDescription>  (83) 
non-dentate

>  <MolecularWeight>  (83) 
59.09

>  <HDonors>  (83) 
1

>  <HAcceptors>  (83) 
2

>  <LogP>  (83) 
0.67

>  <NumAtoms>  (83) 
4

>  <NetFormalCharge>  (83) 
0

$$$$

     RDKit          3D

  1  0  0  0  0  0  0  0  0  0999 V2000
   -0.0043    0.0112    0.2947 N   0  0  0  0  0  0  0  0  0  0  0  0
M  END
>  <LigandName>  (84) 
NH₃

>  <SMILES>  (84) 
N

>  <FieldStrength>  (84) 
moderate-strong

>  <Delta_cm-1>  (84) 
23000

>  <DonorAtom>  (84) 
N

>  <Denticity>  (84) 
0

>  <DenticityDescription>  (84) 
non-dentate

>  <MolecularWeight>  (84) 
17.03

>  <HDonors>  (84) 
1

>  <HAcceptors>  (84) 
1

>  <LogP>  (84) 
0.16

>  <NumAtoms>  (84) 
4

>  <NetFormalCharge>  (84) 
0

$$$$
NH4
     RDKit          3D

  1  0  0  0  0  0  0  0  0  0999 V2000
    0.0000    0.0000    0.0000 N   0  0  0  0  0  0  0  0  0  0  0  0
M  CHG  1   1   1
M  END
>  <LigandName>  (85) 
NH4

>  <Denticity>  (85) 
0

>  <DenticityDescription>  (85) 
non-dentate

>  <Delta_cm-1>  (85) 
20000

>  <DeltaConfidence>  (85) 
default

>  <SMILES>  (85) 
[H][N+]([H])([H])[H]

>  <NetFormalCharge>  (85) 
1

$$$$

     RDKit          3D

  3  2  0  0  0  0  0  0  0  0999 V2000
    1.1633   -0.1990    0.0000 O   0  0  0  0  0  1  0  0  0  0  0  0
   -0.0560    0.4348    0.0000 N   0  0  0  0  0  3  0  0  0  0  0  0
   -1.1072   -0.2358    0.0000 O   0  0  0  0  0  0  0  0  0  0  0  0
  1  2  1  0
  2  3  2  0
M  CHG  2   1  -1   2   1
M  RAD  1   2   2
M  END
>  <LigandName>  (86) 
NO₂⁻

>  <SMILES>  (86) 
[O-][N+](=O)

>  <FieldStrength>  (86) 
strong

>  <Delta_cm-1>  (86) 
27000

>  <DonorAtom>  (86) 
N

>  <Denticity>  (86) 
1

>  <DenticityDescription>  (86) 
monodentate

>  <MolecularWeight>  (86) 
46.01

>  <HDonors>  (86) 
0

>  <HAcceptors>  (86) 
3

>  <LogP>  (86) 
-0.41

>  <NumAtoms>  (86) 
3

>  <NetFormalCharge>  (86) 
0

$$$$
NO3
     RDKit          3D

  4  3  0  0  0  0  0  0  0  0999 V2000
   -0.0000    0.0000   -0.0010 N   0  0  0  0  0  0  0  0  0  0  0  0
   -1.2180    0.0170    0.0000 O   0  0  0  0  0  0  0  0  0  0  0  0
    0.6230    1.0460    0.0000 O   0  0  0  0  0  0  0  0  0  0  0  0
    0.5950   -1.0630    0.0000 O   0  0  0  0  0  0  0  0  0  0  0  0
  1  2  2  0
  1  3  1  0
  1  4  1  0
M  CHG  3   1   1   3  -1   4  -1
M  END
>  <LigandName>  (87) 
NO3

>  <Denticity>  (87) 
2

>  <DenticityDescription>  (87) 
bidentate

>  <Delta_cm-1>  (87) 
20000

>  <DeltaConfidence>  (87) 
estimated

>  <SMILES>  (87) 
O=[N+]([O-])[O-]

>  <NetFormalCharge>  (87) 
-1

$$$$

     RDKit          3D

  4  3  0  0  0  0  0  0  0  0999 V2000
   -1.1330   -0.7497   -0.0068 O   0  0  0  0  0  1  0  0  0  0  0  0
   -0.0026    0.0317    0.0003 N   0  0  0  0  0  4  0  0  0  0  0  0
   -0.1038    1.2744    0.0112 O   0  0  0  0  0  0  0  0  0  0  0  0
    1.2394   -0.5565   -0.0046 O   0  0  0  0  0  1  0  0  0  0  0  0
  1  2  1  0
  2  3  2  0
  2  4  1  0
M  CHG  3   1  -1   2   1   4  -1
M  END
>  <LigandName>  (88) 
NO₃⁻

>  <SMILES>  (88) 
O=N(=O)[O-]

>  <FieldStrength>  (88) 
weak

>  <Delta_cm-1>  (88) 
15000

>  <DonorAtom>  (88) 
O

>  <Denticity>  (88) 
2

>  <DenticityDescription>  (88) 
bidentate

>  <MolecularWeight>  (88) 
62.0

>  <HDonors>  (88) 
0

>  <HAcceptors>  (88) 
3

>  <LogP>  (88) 
-0.24

>  <NumAtoms>  (88) 
4

>  <NetFormalCharge>  (88) 
-1

$$$$

     RDKit          3D

  1  0  0  0  0  0  0  0  0  0999 V2000
    0.4951    0.0000    0.0000 O   0  0  0  0  0  1  0  0  0  0  0  0
M  CHG  1   1  -1
M  END
>  <LigandName>  (89) 
OH⁻

>  <SMILES>  (89) 
[OH-]

>  <FieldStrength>  (89) 
moderate

>  <Delta_cm-1>  (89) 
19000

>  <DonorAtom>  (89) 
O

>  <Denticity>  (89) 
1

>  <DenticityDescription>  (89) 
monodentate

>  <MolecularWeight>  (89) 
17.01

>  <HDonors>  (89) 
0

>  <HAcceptors>  (89) 
1

>  <LogP>  (89) 
-0.18

>  <NumAtoms>  (89) 
2

>  <NetFormalCharge>  (89) 
-1

$$$$
PB
     RDKit          2D

  1  0  0  0  0  0  0  0  0  0999 V2000
    0.0000    0.0000    0.0000 Pb  0  0  0  0  0 15  0  0  0  0  0  0
M  CHG  1   1   2
M  END
>  <LigandName>  (90) 
PB

>  <Denticity>  (90) 
0

>  <DenticityDescription>  (90) 
non-dentate

>  <Delta_cm-1>  (90) 
20000

>  <DeltaConfidence>  (90) 
default

>  <SMILES>  (90) 
[Pb+2]

>  <NetFormalCharge>  (90) 
2

$$$$
PEG
     RDKit          3D

  7  6  0  0  0  0  0  0  0  0999 V2000
   -2.3390   -0.0420   -0.5880 C   0  0  0  0  0  0  0  0  0  0  0  0
   -2.6670   -0.7840    0.5880 O   0  0  0  0  0  0  0  0  0  0  0  0
   -1.1620    0.8900   -0.2920 C   0  0  0  0  0  0  0  0  0  0  0  0
    0.0000    0.1120    0.0000 O   0  0  0  0  0  0  0  0  0  0  0  0
    1.1620    0.8900    0.2920 C   0  0  0  0  0  0  0  0  0  0  0  0
    2.3390   -0.0420    0.5880 C   0  0  0  0  0  0  0  0  0  0  0  0
    2.6670   -0.7840   -0.5890 O   0  0  0  0  0  0  0  0  0  0  0  0
  1  2  1  0
  1  3  1  0
  3  4  1  0
  4  5  1  0
  5  6  1  0
  6  7  1  0
M  END
>  <LigandName>  (91) 
PEG

>  <Denticity>  (91) 
2

>  <DenticityDescription>  (91) 
bidentate

>  <Delta_cm-1>  (91) 
20000

>  <DeltaConfidence>  (91) 
estimated

>  <SMILES>  (91) 
[H]OC([H])([H])C([H])([H])OC([H])([H])C([H])([H])O[H]

>  <NetFormalCharge>  (91) 
0

$$$$
PGE
     RDKit          3D

 10  9  0  0  0  0  0  0  0  0999 V2000
    0.9130   -0.4580    3.4840 C   0  0  0  0  0  0  0  0  0  0  0  0
    0.9310    0.9390    3.7800 O   0  0  0  0  0  0  0  0  0  0  0  0
   -0.3140   -0.7830    2.6300 C   0  0  0  0  0  0  0  0  0  0  0  0
   -0.2560   -0.0390    1.4110 O   0  0  0  0  0  0  0  0  0  0  0  0
   -1.4230   -0.3830    0.6620 C   0  0  0  0  0  0  0  0  0  0  0  0
   -1.4230    0.3830   -0.6620 C   0  0  0  0  0  0  0  0  0  0  0  0
    0.9310   -0.9380   -3.7800 O   0  0  0  0  0  0  0  0  0  0  0  0
    0.9120    0.4590   -3.4840 C   0  0  0  0  0  0  0  0  0  0  0  0
   -0.3140    0.7830   -2.6300 C   0  0  0  0  0  0  0  0  0  0  0  0
   -0.2560    0.0390   -1.4110 O   0  0  0  0  0  0  0  0  0  0  0  0
  1  2  1  0
  1  3  1  0
  3  4  1  0
  4  5  1  0
  5  6  1  0
  6 10  1  0
  7  8  1  0
  8  9  1  0
  9 10  1  0
M  END
>  <LigandName>  (92) 
PGE

>  <Denticity>  (92) 
2

>  <DenticityDescription>  (92) 
bidentate

>  <Delta_cm-1>  (92) 
20000

>  <DeltaConfidence>  (92) 
estimated

>  <SMILES>  (92) 
[H]OC([H])([H])C([H])([H])OC([H])([H])C([H])([H])OC([H])([H])C([H])([H])O[H]

>  <NetFormalCharge>  (92) 
0

$$$$

     RDKit          3D

 16 18  0  0  0  0  0  0  0  0999 V2000
   -3.2820    1.4266   -0.3290 C   0  0  0  0  0  0  0  0  0  0  0  0
   -2.0530    1.9930   -0.6687 C   0  0  0  0  0  0  0  0  0  0  0  0
   -0.8730    1.2599   -0.5184 C   0  0  0  0  0  0  0  0  0  0  0  0
   -0.9085   -0.0558   -0.0099 C   0  0  0  0  0  0  0  0  0  0  0  0
   -2.1656   -0.6331    0.3053 C   0  0  0  0  0  0  0  0  0  0  0  0
   -3.3418    0.1174    0.1514 C   0  0  0  0  0  0  0  0  0  0  0  0
   -2.2297   -1.9569    0.7550 C   0  0  0  0  0  0  0  0  0  0  0  0
   -1.0563   -2.6962    0.8790 C   0  0  0  0  0  0  0  0  0  0  0  0
    0.1421   -2.1292    0.5884 N   0  0  0  0  0  0  0  0  0  0  0  0
    0.2604   -0.8402    0.1660 C   0  0  0  0  0  0  0  0  0  0  0  0
    1.6225   -0.3201   -0.0779 C   0  0  0  0  0  0  0  0  0  0  0  0
    2.1032    0.8023    0.6136 C   0  0  0  0  0  0  0  0  0  0  0  0
    3.4064    1.2517    0.3943 C   0  0  0  0  0  0  0  0  0  0  0  0
    4.2249    0.5638   -0.5035 C   0  0  0  0  0  0  0  0  0  0  0  0
    3.7537   -0.5359   -1.1493 N   0  0  0  0  0  0  0  0  0  0  0  0
    2.4875   -0.9924   -0.9536 C   0  0  0  0  0  0  0  0  0  0  0  0
  1  2  2  0
  2  3  1  0
  3  4  2  0
  4  5  1  0
  5  6  2  0
  5  7  1  0
  7  8  2  0
  8  9  1  0
  9 10  2  0
 10 11  1  0
 11 12  2  0
 12 13  1  0
 13 14  2  0
 14 15  1  0
 15 16  2  0
  6  1  1  0
 10  4  1  0
 16 11  1  0
M  END
>  <LigandName>  (93) 
phen

>  <SMILES>  (93) 
c1ccc2c(c1)ccnc2c3cccnc3

>  <FieldStrength>  (93) 
strong

>  <Delta_cm-1>  (93) 
27000

>  <DonorAtom>  (93) 
N,N

>  <Denticity>  (93) 
2

>  <DenticityDescription>  (93) 
bidentate

>  <MolecularWeight>  (93) 
206.25

>  <HDonors>  (93) 
0

>  <HAcceptors>  (93) 
2

>  <LogP>  (93) 
3.3

>  <NumAtoms>  (93) 
26

>  <NetFormalCharge>  (93) 
0

$$$$
PO4
     RDKit          3D

  5  4  0  0  0  0  0  0  0  0999 V2000
    0.0000    0.0000    0.0000 P   0  0  0  0  0  0  0  0  0  0  0  0
    0.0000   -1.2880   -0.9110 O   0  0  0  0  0  0  0  0  0  0  0  0
    0.0000    1.2880   -0.9110 O   0  0  0  0  0  0  0  0  0  0  0  0
   -1.2880    0.0000    0.9110 O   0  0  0  0  0  0  0  0  0  0  0  0
    1.2880    0.0000    0.9110 O   0  0  0  0  0  0  0  0  0  0  0  0
  1  2  2  0
  1  3  1  0
  1  4  1  0
  1  5  1  0
M  CHG  3   3  -1   4  -1   5  -1
M  END
>  <LigandName>  (94) 
PO4

>  <Denticity>  (94) 
4

>  <DenticityDescription>  (94) 
tetradentate

>  <Delta_cm-1>  (94) 
22000

>  <DeltaConfidence>  (94) 
estimated

>  <SMILES>  (94) 
O=P([O-])([O-])[O-]

>  <NetFormalCharge>  (94) 
-3

$$$$

     RDKit          3D

 19 21  0  0  0  0  0  0  0  0999 V2000
    0.0773   -0.0852   -1.4140 P   0  0  0  0  0  0  0  0  0  0  0  0
   -0.9056    1.3609   -0.8146 C   0  0  0  0  0  0  0  0  0  0  0  0
   -0.2799    2.4839   -0.2550 C   0  0  0  0  0  0  0  0  0  0  0  0
   -1.0505    3.5848    0.1411 C   0  0  0  0  0  0  0  0  0  0  0  0
   -2.4346    3.5727   -0.0315 C   0  0  0  0  0  0  0  0  0  0  0  0
   -3.0600    2.4767   -0.6159 C   0  0  0  0  0  0  0  0  0  0  0  0
   -2.2999    1.3731   -1.0155 C   0  0  0  0  0  0  0  0  0  0  0  0
   -0.6748   -1.5399   -0.5600 C   0  0  0  0  0  0  0  0  0  0  0  0
   -1.4801   -1.4000    0.5797 C   0  0  0  0  0  0  0  0  0  0  0  0
   -2.0172   -2.5329    1.1993 C   0  0  0  0  0  0  0  0  0  0  0  0
   -1.7398   -3.8119    0.6954 C   0  0  0  0  0  0  0  0  0  0  0  0
   -0.9130   -3.9580   -0.4269 C   0  0  0  0  0  0  0  0  0  0  0  0
   -0.3805   -2.8238   -1.0458 C   0  0  0  0  0  0  0  0  0  0  0  0
    1.6584    0.0533   -0.4743 C   0  0  0  0  0  0  0  0  0  0  0  0
    1.6842    0.0038    0.9305 C   0  0  0  0  0  0  0  0  0  0  0  0
    2.8979    0.1275    1.6074 C   0  0  0  0  0  0  0  0  0  0  0  0
    4.0913    0.3120    0.8947 C   0  0  0  0  0  0  0  0  0  0  0  0
    4.0652    0.3744   -0.5029 C   0  0  0  0  0  0  0  0  0  0  0  0
    2.8531    0.2464   -1.1828 C   0  0  0  0  0  0  0  0  0  0  0  0
  1  2  1  0
  2  3  2  0
  3  4  1  0
  4  5  2  0
  5  6  1  0
  6  7  2  0
  1  8  1  0
  8  9  2  0
  9 10  1  0
 10 11  2  0
 11 12  1  0
 12 13  2  0
  1 14  1  0
 14 15  2  0
 15 16  1  0
 16 17  2  0
 17 18  1  0
 18 19  2  0
  7  2  1  0
 13  8  1  0
 19 14  1  0
M  END
>  <LigandName>  (95) 
PPh₃

>  <SMILES>  (95) 
P(c1ccccc1)(c2ccccc2)(c3ccccc3)

>  <FieldStrength>  (95) 
strong

>  <Delta_cm-1>  (95) 
28000

>  <DonorAtom>  (95) 
P

>  <Denticity>  (95) 
1

>  <DenticityDescription>  (95) 
monodentate

>  <MolecularWeight>  (95) 
262.29

>  <HDonors>  (95) 
0

>  <HAcceptors>  (95) 
0

>  <LogP>  (95) 
3.44

>  <NumAtoms>  (95) 
34

>  <NetFormalCharge>  (95) 
0

$$$$

     RDKit          3D

  6  6  0  0  0  0  0  0  0  0999 V2000
   -0.0889    1.1692   -0.0691 C   0  0  0  0  0  0  0  0  0  0  0  0
   -1.2407    0.3803   -0.0268 C   0  0  0  0  0  0  0  0  0  0  0  0
   -1.1143   -1.0092    0.0554 C   0  0  0  0  0  0  0  0  0  0  0  0
    0.1201   -1.5798    0.0933 N   0  0  0  0  0  0  0  0  0  0  0  0
    1.2541   -0.8292    0.0532 C   0  0  0  0  0  0  0  0  0  0  0  0
    1.1690    0.5634   -0.0290 C   0  0  0  0  0  0  0  0  0  0  0  0
  1  2  2  0
  2  3  1  0
  3  4  2  0
  4  5  1  0
  5  6  2  0
  6  1  1  0
M  END
>  <LigandName>  (96) 
py

>  <SMILES>  (96) 
c1ccncc1

>  <FieldStrength>  (96) 
moderate

>  <Delta_cm-1>  (96) 
22000

>  <DonorAtom>  (96) 
N

>  <Denticity>  (96) 
1

>  <DenticityDescription>  (96) 
monodentate

>  <MolecularWeight>  (96) 
79.1

>  <HDonors>  (96) 
0

>  <HAcceptors>  (96) 
1

>  <LogP>  (96) 
1.08

>  <NumAtoms>  (96) 
11

>  <NetFormalCharge>  (96) 
0

$$$$

     RDKit          3D

  5  5  0  0  0  0  0  0  0  0999 V2000
   -1.0903    0.3841   -0.0503 C   0  0  0  0  0  0  0  0  0  0  0  0
    0.1770    1.0082   -0.5760 C   0  0  0  0  0  0  0  0  0  0  0  0
    1.2938    0.1482   -0.0042 C   0  0  0  0  0  0  0  0  0  0  0  0
    0.7174   -1.1215    0.4502 N   0  0  0  0  0  0  0  0  0  0  0  0
   -0.7175   -1.0669    0.1709 C   0  0  0  0  0  0  0  0  0  0  0  0
  1  2  1  0
  2  3  1  0
  3  4  1  0
  4  5  1  0
  5  1  1  0
M  END
>  <LigandName>  (97) 
Pyrrolidine

>  <SMILES>  (97) 
C1CCNC1

>  <FieldStrength>  (97) 
strong

>  <Delta_cm-1>  (97) 
25000

>  <DonorAtom>  (97) 
N

>  <Denticity>  (97) 
1

>  <DenticityDescription>  (97) 
monodentate

>  <MolecularWeight>  (97) 
71.12

>  <HDonors>  (97) 
1

>  <HAcceptors>  (97) 
1

>  <LogP>  (97) 
0.37

>  <NumAtoms>  (97) 
14

>  <NetFormalCharge>  (97) 
0

$$$$

     RDKit          3D

  1  0  0  0  0  0  0  0  0  0999 V2000
    4.0000    0.0000    0.0000 S   0  0  0  0  0 15  0  0  0  0  0  0
M  CHG  1   1  -2
M  END
>  <LigandName>  (98) 
S²⁻

>  <SMILES>  (98) 
[S-2]

>  <FieldStrength>  (98) 
very weak

>  <Delta_cm-1>  (98) 
11000

>  <DonorAtom>  (98) 
S

>  <Denticity>  (98) 
0

>  <DenticityDescription>  (98) 
non-dentate

>  <MolecularWeight>  (98) 
32.07

>  <HDonors>  (98) 
0

>  <HAcceptors>  (98) 
0

>  <LogP>  (98) 
-0.0

>  <NumAtoms>  (98) 
1

>  <NetFormalCharge>  (98) 
-2

$$$$
SAH
     RDKit          3D

 26 28  0  0  1  0  0  0  0  0999 V2000
    0.6630    0.7420    6.8430 N   0  0  0  0  0  0  0  0  0  0  0  0
   -0.6680    0.5580    6.2510 C   0  0  1  0  0  0  0  0  0  0  0  0
   -0.5530   -0.3150    5.0000 C   0  0  0  0  0  0  0  0  0  0  0  0
    0.3650    0.3650    3.9850 C   0  0  0  0  0  0  0  0  0  0  0  0
    0.5010   -0.6690    2.5010 S   0  0  0  0  0  0  0  0  0  0  0  0
   -1.5730   -0.1120    7.2510 C   0  0  0  0  0  0  0  0  0  0  0  0
   -1.1120   -0.8720    8.0700 O   0  0  0  0  0  0  0  0  0  0  0  0
   -2.8930    0.1320    7.2320 O   0  0  0  0  0  0  0  0  0  0  0  0
    1.6160    0.3540    1.5030 C   0  0  0  0  0  0  0  0  0  0  0  0
    1.8830   -0.3370    0.1640 C   0  0  1  0  0  0  0  0  0  0  0  0
    0.6520   -0.4860   -0.5610 O   0  0  0  0  0  0  0  0  0  0  0  0
    2.8240    0.5290   -0.6940 C   0  0  1  0  0  0  0  0  0  0  0  0
    4.0260   -0.1790   -1.0010 O   0  0  0  0  0  0  0  0  0  0  0  0
    2.0090    0.8000   -1.9860 C   0  0  1  0  0  0  0  0  0  0  0  0
    2.8440    0.7100   -3.1430 O   0  0  0  0  0  0  0  0  0  0  0  0
    0.9700   -0.3490   -1.9630 C   0  0  2  0  0  0  0  0  0  0  0  0
   -0.2230    0.0140   -2.7300 N   0  0  0  0  0  0  0  0  0  0  0  0
   -1.2970    0.7150   -2.2670 C   0  0  0  0  0  0  0  0  0  0  0  0
   -2.1760    0.8590   -3.2150 N   0  0  0  0  0  0  0  0  0  0  0  0
   -1.7240    0.2610   -4.3440 C   0  0  0  0  0  0  0  0  0  0  0  0
   -2.2280    0.0980   -5.6450 C   0  0  0  0  0  0  0  0  0  0  0  0
   -3.4620    0.6170   -5.9970 N   0  0  0  0  0  0  0  0  0  0  0  0
   -1.4930   -0.5660   -6.5310 N   0  0  0  0  0  0  0  0  0  0  0  0
   -0.3140   -1.0650   -6.2040 C   0  0  0  0  0  0  0  0  0  0  0  0
    0.1960   -0.9360   -4.9980 N   0  0  0  0  0  0  0  0  0  0  0  0
   -0.4630   -0.2830   -4.0480 C   0  0  0  0  0  0  0  0  0  0  0  0
  2  1  1  1
  2  3  1  0
  2  6  1  0
  3  4  1  0
  4  5  1  0
  5  9  1  0
  6  7  2  0
  6  8  1  0
 10  9  1  1
 10 11  1  0
 10 12  1  0
 11 16  1  0
 12 13  1  6
 12 14  1  0
 14 15  1  6
 14 16  1  0
 16 17  1  6
 17 18  1  0
 17 26  1  0
 18 19  2  0
 19 20  1  0
 20 21  1  0
 20 26  2  0
 21 22  1  0
 21 23  2  0
 23 24  1  0
 24 25  2  0
 25 26  1  0
M  END
>  <LigandName>  (99) 
SAH

>  <Denticity>  (99) 
9

>  <DenticityDescription>  (99) 
9-dentate

>  <Delta_cm-1>  (99) 
22444

>  <DeltaConfidence>  (99) 
estimated

>  <SMILES>  (99) 
[H]OC(=O)[C@@]([H])(N([H])[H])C([H])([H])C([H])([H])SC([H])([H])[C@@]1([H])O[C@@]([H])(n2c([H])nc3c(N([H])[H])nc([H])nc32)[C@]([H])(O[H])[C@]1([H])O[H]

>  <NetFormalCharge>  (99) 
0

$$$$
SAM
     RDKit          3D

 27 29  0  0  1  0  0  0  0  0999 V2000
   -6.8150   -0.4360    0.9390 N   0  0  0  0  0  0  0  0  0  0  0  0
   -6.1770    0.8580    0.6610 C   0  0  2  0  0  0  0  0  0  0  0  0
   -7.1640    1.7670   -0.0260 C   0  0  0  0  0  0  0  0  0  0  0  0
   -8.0350    1.2950   -0.7370 O   0  0  0  0  0  0  0  0  0  0  0  0
   -7.0910    2.9740    0.1300 O   0  0  0  0  0  0  0  0  0  0  0  0
   -4.9640    0.6440   -0.2460 C   0  0  0  0  0  0  0  0  0  0  0  0
   -3.9080   -0.1760    0.4990 C   0  0  0  0  0  0  0  0  0  0  0  0
   -2.4690   -0.4290   -0.5760 S   0  0  0  0  0  0  0  0  0  0  0  0
   -3.1030   -1.7510   -1.6440 C   0  0  0  0  0  0  0  0  0  0  0  0
   -1.4130   -1.4000    0.5340 C   0  0  0  0  0  0  0  0  0  0  0  0
   -0.1030   -1.7410   -0.1770 C   0  0  1  0  0  0  0  0  0  0  0  0
    0.6560   -0.5420   -0.4070 O   0  0  0  0  0  0  0  0  0  0  0  0
    0.7520   -2.6640    0.7130 C   0  0  1  0  0  0  0  0  0  0  0  0
    1.0040   -3.9090    0.0580 O   0  0  0  0  0  0  0  0  0  0  0  0
    2.0750   -1.8770    0.9100 C   0  0  1  0  0  0  0  0  0  0  0  0
    3.2030   -2.7510    0.8320 O   0  0  0  0  0  0  0  0  0  0  0  0
    2.0500   -0.8960   -0.2900 C   0  0  2  0  0  0  0  0  0  0  0  0
    2.8620    0.2900   -0.0060 N   0  0  0  0  0  0  0  0  0  0  0  0
    2.4260    1.4480    0.5670 C   0  0  0  0  0  0  0  0  0  0  0  0
    3.4110    2.2920    0.6700 N   0  0  0  0  0  0  0  0  0  0  0  0
    4.5390    1.7310    0.1720 C   0  0  0  0  0  0  0  0  0  0  0  0
    5.8700    2.1550    0.0220 C   0  0  0  0  0  0  0  0  0  0  0  0
    6.2630    3.4150    0.4380 N   0  0  0  0  0  0  0  0  0  0  0  0
    6.7440    1.3170   -0.5270 N   0  0  0  0  0  0  0  0  0  0  0  0
    6.3780    0.1120   -0.9250 C   0  0  0  0  0  0  0  0  0  0  0  0
    5.1430   -0.3270   -0.8050 N   0  0  0  0  0  0  0  0  0  0  0  0
    4.2010    0.4380   -0.2630 C   0  0  0  0  0  0  0  0  0  0  0  0
  2  1  1  6
  2  3  1  0
  2  6  1  0
  3  4  2  0
  3  5  1  0
  6  7  1  0
  8  7  1  0
  8  9  1  6
  8 10  1  0
 11 10  1  1
 11 12  1  0
 11 13  1  0
 12 17  1  0
 13 14  1  6
 13 15  1  0
 15 16  1  6
 15 17  1  0
 17 18  1  1
 18 19  1  0
 18 27  1  0
 19 20  2  0
 20 21  1  0
 21 22  1  0
 21 27  2  0
 22 23  1  0
 22 24  2  0
 24 25  1  0
 25 26  2  0
 26 27  1  0
M  CHG  2   5  -1   8   1
M  END
>  <LigandName>  (100) 
SAM

>  <Denticity>  (100) 
11

>  <DenticityDescription>  (100) 
11-dentate

>  <Delta_cm-1>  (100) 
22200

>  <DeltaConfidence>  (100) 
estimated

>  <SMILES>  (100) 
[H]O[C@@]1([H])[C@@]([H])(O[H])[C@]([H])(n2c([H])nc3c(N([H])[H])nc([H])nc32)O[C@]1([H])C([H])([H])[S@@+](C([H])([H])[H])C([H])([H])C([H])([H])[C@@]([H])(C(=O)[O-])N([H])[H]

>  <NetFormalCharge>  (100) 
0

$$$$

     RDKit          3D

  3  2  0  0  0  0  0  0  0  0999 V2000
    1.8946   -0.1523   -0.3849 S   0  0  0  0  0  0  0  0  0  0  0  0
    0.3895    0.1509    0.1040 C   0  0  0  0  0  0  0  0  0  0  0  0
   -0.7964    0.3898    0.4892 N   0  0  0  0  0  0  0  0  0  0  0  0
  1  2  2  0
  2  3  2  0
M  END
>  <LigandName>  (101) 
SCN⁻ (S-bound)

>  <SMILES>  (101) 
S=C=N

>  <FieldStrength>  (101) 
weak

>  <MolecularWeight>  (101) 
59.09

>  <HDonors>  (101) 
1

>  <HAcceptors>  (101) 
2

>  <LogP>  (101) 
0.67

>  <NumAtoms>  (101) 
4

>  <NetFormalCharge>  (101) 
0

$$$$

     RDKit          3D

  3  2  0  0  0  0  0  0  0  0999 V2000
    1.9012   -0.1260   -0.3696 S   0  0  0  0  0  0  0  0  0  0  0  0
    0.3918    0.1537    0.1204 C   0  0  0  0  0  0  0  0  0  0  0  0
   -0.7974    0.3739    0.5064 N   0  0  0  0  0  0  0  0  0  0  0  0
  1  2  2  0
  2  3  2  0
M  END
>  <LigandName>  (102) 
SCN⁻ (S-bound)

>  <SMILES>  (102) 
S=C=N

>  <FieldStrength>  (102) 
weak

>  <Delta_cm-1>  (102) 
14000

>  <DonorAtom>  (102) 
S

>  <Denticity>  (102) 
0

>  <DenticityDescription>  (102) 
non-dentate

>  <MolecularWeight>  (102) 
59.09

>  <HDonors>  (102) 
1

>  <HAcceptors>  (102) 
2

>  <LogP>  (102) 
0.67

>  <NumAtoms>  (102) 
4

>  <NetFormalCharge>  (102) 
0

$$$$
SIA
     RDKit          3D

 21 21  0  0  1  0  0  0  0  0999 V2000
   -2.5020   -0.8320    0.1740 C   0  0  0  0  0  0  0  0  0  0  0  0
   -2.1710    0.6280    0.3420 C   0  0  2  0  0  0  0  0  0  0  0  0
   -1.7890    0.8980    1.8000 C   0  0  0  0  0  0  0  0  0  0  0  0
   -0.5860    0.0230    2.1710 C   0  0  1  0  0  0  0  0  0  0  0  0
    0.5290    0.2640    1.1480 C   0  0  2  0  0  0  0  0  0  0  0  0
   -0.0260    0.0430   -0.2590 C   0  0  2  0  0  0  0  0  0  0  0  0
    1.0880    0.2510   -1.2860 C   0  0  1  0  0  0  0  0  0  0  0  0
    0.5350    0.0210   -2.6940 C   0  0  1  0  0  0  0  0  0  0  0  0
    1.6500    0.2290   -3.7210 C   0  0  0  0  0  0  0  0  0  0  0  0
    2.6320   -0.3290    2.2260 C   0  0  0  0  0  0  0  0  0  0  0  0
    3.7630   -1.2920    2.4780 C   0  0  0  0  0  0  0  0  0  0  0  0
    1.6290   -0.6710    1.3940 N   0  0  0  0  0  0  0  0  0  0  0  0
   -2.1910   -1.4080   -0.8410 O   0  0  0  0  0  0  0  0  0  0  0  0
   -3.1410   -1.4930    1.1520 O   0  0  0  0  0  0  0  0  0  0  0  0
   -3.3120    1.4160   -0.0030 O   0  0  0  0  0  0  0  0  0  0  0  0
   -0.1230    0.3700    3.4780 O   0  0  0  0  0  0  0  0  0  0  0  0
   -1.0820    0.9680   -0.5130 O   0  0  0  0  0  0  0  0  0  0  0  0
    1.5880    1.5860   -1.1830 O   0  0  0  0  0  0  0  0  0  0  0  0
    0.0350   -1.3130   -2.7970 O   0  0  0  0  0  0  0  0  0  0  0  0
    1.1330    0.0140   -5.0350 O   0  0  0  0  0  0  0  0  0  0  0  0
    2.6240    0.7530    2.7720 O   0  0  0  0  0  0  0  0  0  0  0  0
  1  2  1  0
  1 13  2  0
  1 14  1  0
  2  3  1  0
  2 15  1  6
  2 17  1  0
  3  4  1  0
  4  5  1  0
  4 16  1  1
  5  6  1  0
  5 12  1  1
  6  7  1  0
  6 17  1  6
  7  8  1  0
  7 18  1  6
  8  9  1  0
  8 19  1  1
  9 20  1  0
 10 11  1  0
 10 12  1  0
 10 21  2  0
M  END
>  <LigandName>  (103) 
SIA

>  <Denticity>  (103) 
6

>  <DenticityDescription>  (103) 
hexadentate

>  <Delta_cm-1>  (103) 
20000

>  <DeltaConfidence>  (103) 
estimated

>  <SMILES>  (103) 
[H]OC(=O)[C@]1(O[H])O[C@@]([H])([C@]([H])(O[H])[C@]([H])(O[H])C([H])([H])O[H])[C@]([H])(N([H])C(=O)C([H])([H])[H])[C@@]([H])(O[H])C1([H])[H]

>  <NetFormalCharge>  (103) 
0

$$$$
SO4
     RDKit          3D

  5  4  0  0  0  0  0  0  0  0999 V2000
    0.0000    0.0000    0.0000 S   0  0  0  0  0  0  0  0  0  0  0  0
    0.0000   -1.2010   -0.8500 O   0  0  0  0  0  0  0  0  0  0  0  0
    0.0000    1.2010   -0.8500 O   0  0  0  0  0  0  0  0  0  0  0  0
   -1.2010    0.0000    0.8500 O   0  0  0  0  0  0  0  0  0  0  0  0
    1.2010    0.0000    0.8500 O   0  0  0  0  0  0  0  0  0  0  0  0
  1  2  2  0
  1  3  2  0
  1  4  1  0
  1  5  1  0
M  CHG  2   4  -1   5  -1
M  END
>  <LigandName>  (104) 
SO4

>  <Denticity>  (104) 
5

>  <DenticityDescription>  (104) 
pentadentate

>  <Delta_cm-1>  (104) 
19000

>  <DeltaConfidence>  (104) 
estimated

>  <SMILES>  (104) 
O=S(=O)([O-])[O-]

>  <NetFormalCharge>  (104) 
-2

$$$$
SR
     RDKit          2D

  1  0  0  0  0  0  0  0  0  0999 V2000
    0.0000    0.0000    0.0000 Sr  0  0  0  0  0 15  0  0  0  0  0  0
M  CHG  1   1   2
M  END
>  <LigandName>  (105) 
SR

>  <Denticity>  (105) 
0

>  <DenticityDescription>  (105) 
non-dentate

>  <Delta_cm-1>  (105) 
20000

>  <DeltaConfidence>  (105) 
default

>  <SMILES>  (105) 
[Sr+2]

>  <NetFormalCharge>  (105) 
2

$$$$

     RDKit          3D

  5  5  0  0  0  0  0  0  0  0999 V2000
    0.5242    0.8390   -0.3855 C   0  0  0  0  0  0  0  0  0  0  0  0
   -0.8020    0.6387    0.2759 C   0  0  0  0  0  0  0  0  0  0  0  0
   -0.9817   -0.8642    0.2277 C   0  0  0  0  0  0  0  0  0  0  0  0
    0.2789   -1.4838    0.1101 O   0  0  0  0  0  0  0  0  0  0  0  0
    1.2333   -0.4742   -0.1283 C   0  0  0  0  0  0  0  0  0  0  0  0
  1  2  1  0
  2  3  1  0
  3  4  1  0
  4  5  1  0
  5  1  1  0
M  END
>  <LigandName>  (106) 
THF

>  <SMILES>  (106) 
C1CCOC1

>  <FieldStrength>  (106) 
moderate

>  <Delta_cm-1>  (106) 
21000

>  <DonorAtom>  (106) 
O

>  <Denticity>  (106) 
0

>  <DenticityDescription>  (106) 
non-dentate

>  <MolecularWeight>  (106) 
72.11

>  <HDonors>  (106) 
0

>  <HAcceptors>  (106) 
1

>  <LogP>  (106) 
0.8

>  <NumAtoms>  (106) 
13

>  <NetFormalCharge>  (106) 
0

$$$$
TRS
     RDKit          3D

  8  7  0  0  0  0  0  0  0  0999 V2000
    0.0130   -0.2960    0.0140 C   0  0  0  0  0  0  0  0  0  0  0  0
   -0.0420    0.9860    0.8480 C   0  0  0  0  0  0  0  0  0  0  0  0
    1.2630   -0.2760   -0.8690 C   0  0  0  0  0  0  0  0  0  0  0  0
   -1.2330   -0.3840   -0.8690 C   0  0  0  0  0  0  0  0  0  0  0  0
    0.0640   -1.4600    0.9080 N   0  0  0  0  0  0  0  0  0  0  0  0
   -0.0910    2.1180   -0.0220 O   0  0  0  0  0  0  0  0  0  0  0  0
    2.4290   -0.3110   -0.0440 O   0  0  0  0  0  0  0  0  0  0  0  0
   -2.4000   -0.4030   -0.0440 O   0  0  0  0  0  0  0  0  0  0  0  0
  1  2  1  0
  1  3  1  0
  1  4  1  0
  1  5  1  0
  2  6  1  0
  3  7  1  0
  4  8  1  0
M  CHG  1   5   1
M  END
>  <LigandName>  (107) 
TRS

>  <Denticity>  (107) 
3

>  <DenticityDescription>  (107) 
tridentate

>  <Delta_cm-1>  (107) 
20000

>  <DeltaConfidence>  (107) 
estimated

>  <SMILES>  (107) 
[H]OC([H])([H])C(C([H])([H])O[H])(C([H])([H])O[H])[N+]([H])([H])[H]

>  <NetFormalCharge>  (107) 
1

$$$$
ZN
     RDKit          2D

  1  0  0  0  0  0  0  0  0  0999 V2000
    0.0000    0.0000    0.0000 Zn  0  0  0  0  0 15  0  0  0  0  0  0
M  CHG  1   1   2
M  END
>  <LigandName>  (108) 
ZN

>  <Denticity>  (108) 
0

>  <DenticityDescription>  (108) 
non-dentate

>  <Delta_cm-1>  (108) 
20000

>  <DeltaConfidence>  (108) 
default

>  <SMILES>  (108) 
[Zn+2]

>  <NetFormalCharge>  (108) 
2

$$$$
