CO
     RDKit          2D

  1  0  0  0  0  0  0  0  0  0999 V2000
    0.0000    0.0000    0.0000 Co  0  0  0  0  0 15  0  0  0  0  0  0
M  CHG  1   1   2
M  END
>  <LigandName>  (1) 
CO

>  <Denticity>  (1) 
0

>  <DenticityDescription>  (1) 
non-dentate

>  <Delta_cm-1>  (1) 
20000

>  <DeltaConfidence>  (1) 
default

>  <SMILES>  (1) 
[Co+2]

$$$$
