NH4
     RDKit          3D

  5  4  0  0  0  0  0  0  0  0999 V2000
    0.0000    0.0000    0.0000 N   0  0  0  0  0  0  0  0  0  0  0  0
   -0.3850   -0.5450   -0.7710 H   0  0  0  0  0  0  0  0  0  0  0  0
    1.0200    0.0000    0.0000 H   0  0  0  0  0  0  0  0  0  0  0  0
   -0.3400    0.9620    0.0000 H   0  0  0  0  0  0  0  0  0  0  0  0
   -0.3850   -0.5450    0.7710 H   0  0  0  0  0  0  0  0  0  0  0  0
  1  2  1  0
  1  3  1  0
  1  4  1  0
  1  5  1  0
M  CHG  1   1   1
M  END
>  <LigandName>  (1) 
NH4

>  <Denticity>  (1) 
0

>  <DenticityDescription>  (1) 
non-dentate

>  <Delta_cm-1>  (1) 
20000

>  <DeltaConfidence>  (1) 
default

>  <SMILES>  (1) 
[H][N+]([H])([H])[H]

$$$$
