ACE
     RDKit          3D

  7  6  0  0  0  0  0  0  0  0999 V2000
   -0.1330    0.4530    0.0000 C   0  0  0  0  0  0  0  0  0  0  0  0
   -1.1130   -0.2520    0.0000 O   0  0  0  0  0  0  0  0  0  0  0  0
    1.2410   -0.1670    0.0000 C   0  0  0  0  0  0  0  0  0  0  0  0
   -0.2400    1.5280    0.0000 H   0  0  0  0  0  0  0  0  0  0  0  0
    1.3600   -0.7850    0.8900 H   0  0  0  0  0  0  0  0  0  0  0  0
    1.3600   -0.7850   -0.8900 H   0  0  0  0  0  0  0  0  0  0  0  0
    1.9950    0.6200    0.0000 H   0  0  0  0  0  0  0  0  0  0  0  0
  1  2  2  0
  1  3  1  0
  1  4  1  0
  3  5  1  0
  3  6  1  0
  3  7  1  0
M  END
>  <LigandName>  (1) 
ACE

>  <Denticity>  (1) 
0

>  <DenticityDescription>  (1) 
non-dentate

>  <Delta_cm-1>  (1) 
20000

>  <DeltaConfidence>  (1) 
default

>  <SMILES>  (1) 
[H]C(=O)C([H])([H])[H]

>  <NetFormalCharge>  (1) 
0

$$$$
