
     RDKit          3D

  7  6  0  0  0  0  0  0  0  0999 V2000
   -0.6644   -0.0365    0.0529 C   0  0  0  0  0  0  0  0  0  0  0  0
    0.8156    0.0790   -0.0871 C   0  0  0  0  0  0  0  0  0  0  0  0
    1.3473    1.2061   -0.2650 O   0  0  0  0  0  0  0  0  0  0  0  0
    1.6164   -1.0496    0.0325 O   0  0  0  0  0  1  0  0  0  0  0  0
   -1.1689    0.6822   -0.6269 H   0  0  0  0  0  0  0  0  0  0  0  0
   -0.9907   -1.0653   -0.2072 H   0  0  0  0  0  0  0  0  0  0  0  0
   -0.9553    0.1841    1.1009 H   0  0  0  0  0  0  0  0  0  0  0  0
  1  2  1  0
  2  3  2  0
  2  4  1  0
  1  5  1  0
  1  6  1  0
  1  7  1  0
M  CHG  1   4  -1
M  END
>  <LigandName>  (1) 
Acetate

>  <SMILES>  (1) 
CC(=O)[O-]

>  <FieldStrength>  (1) 
moderate

>  <Delta_cm-1>  (1) 
20000

>  <DonorAtom>  (1) 
O,O

>  <Denticity>  (1) 
2

>  <DenticityDescription>  (1) 
bidentate

>  <MolecularWeight>  (1) 
59.04

>  <HDonors>  (1) 
0

>  <HAcceptors>  (1) 
2

>  <LogP>  (1) 
-1.24

>  <NumAtoms>  (1) 
7

>  <NetFormalCharge>  (1) 
-1

$$$$
