
     RDKit          3D

  7  6  0  0  0  0  0  0  0  0999 V2000
   -0.6639   -0.0242    0.0650 C   0  0  0  0  0  0  0  0  0  0  0  0
    0.8150    0.0620   -0.1047 C   0  0  0  0  0  0  0  0  0  0  0  0
    1.3561    1.1651   -0.3789 O   0  0  0  0  0  0  0  0  0  0  0  0
    1.6052   -1.0631    0.0926 O   0  0  0  0  0  0  0  0  0  0  0  0
   -1.1708    0.6445   -0.6623 H   0  0  0  0  0  0  0  0  0  0  0  0
   -1.0053   -1.0664   -0.1080 H   0  0  0  0  0  0  0  0  0  0  0  0
   -0.9364    0.2821    1.0963 H   0  0  0  0  0  0  0  0  0  0  0  0
  1  2  1  0
  2  3  2  0
  2  4  1  0
  1  5  1  0
  1  6  1  0
  1  7  1  0
M  CHG  1   4  -1
M  END
>  <LigandName>  (1) 
Acetate

>  <SMILES>  (1) 
CC(=O)[O-]

>  <FieldStrength>  (1) 
moderate

>  <Delta_cm-1>  (1) 
20000

>  <DonorAtom>  (1) 
O,O

>  <Denticity>  (1) 
3

>  <DenticityDescription>  (1) 
tridentate

>  <MolecularWeight>  (1) 
59.04

>  <HDonors>  (1) 
0

>  <HAcceptors>  (1) 
2

>  <LogP>  (1) 
-1.24

>  <NumAtoms>  (1) 
7

>  <NetFormalCharge>  (1) 
-1

$$$$
