
     RDKit          3D

  7  6  0  0  0  0  0  0  0  0999 V2000
   -0.6645   -0.0502   -0.0382 C   0  0  0  0  0  0  0  0  0  0  0  0
    0.8168    0.1015    0.0391 C   0  0  0  0  0  0  0  0  0  0  0  0
    1.3228    1.2111    0.3513 O   0  0  0  0  0  0  0  0  0  0  0  0
    1.6412   -0.9946   -0.1802 O   0  0  0  0  0  1  0  0  0  0  0  0
   -0.9242   -0.9065   -0.6952 H   0  0  0  0  0  0  0  0  0  0  0  0
   -1.1210    0.8725   -0.4547 H   0  0  0  0  0  0  0  0  0  0  0  0
   -1.0711   -0.2339    0.9779 H   0  0  0  0  0  0  0  0  0  0  0  0
  1  2  1  0
  2  3  2  0
  2  4  1  0
  1  5  1  0
  1  6  1  0
  1  7  1  0
M  CHG  1   4  -1
M  END
>  <LigandName>  (1) 
Acetate

>  <SMILES>  (1) 
CC(=O)[O-]

>  <FieldStrength>  (1) 
moderate

>  <Delta_cm-1>  (1) 
20000

>  <DonorAtom>  (1) 
O,O

>  <Denticity>  (1) 
2

>  <DenticityDescription>  (1) 
bidentate

>  <MolecularWeight>  (1) 
59.04

>  <HDonors>  (1) 
0

>  <HAcceptors>  (1) 
2

>  <LogP>  (1) 
-1.24

>  <NumAtoms>  (1) 
7

>  <NetFormalCharge>  (1) 
-1

$$$$
