ACT
     RDKit          3D

  7  6  0  0  0  0  0  0  0  0999 V2000
   -0.0720    0.0000    0.0000 C   0  0  0  0  0  0  0  0  0  0  0  0
   -0.6820    1.0560    0.0000 O   0  0  0  0  0  0  0  0  0  0  0  0
   -0.6820   -1.0560    0.0000 O   0  0  0  0  0  0  0  0  0  0  0  0
    1.4350    0.0000    0.0000 C   0  0  0  0  0  0  0  0  0  0  0  0
    1.7990    0.0000    1.0280 H   0  0  0  0  0  0  0  0  0  0  0  0
    1.7990   -0.8900   -0.5140 H   0  0  0  0  0  0  0  0  0  0  0  0
    1.7990    0.8900   -0.5140 H   0  0  0  0  0  0  0  0  0  0  0  0
  1  2  2  0
  1  3  1  0
  1  4  1  0
  4  5  1  0
  4  6  1  0
  4  7  1  0
M  CHG  1   3  -1
M  END
>  <LigandName>  (1) 
ACT

>  <Denticity>  (1) 
1

>  <DenticityDescription>  (1) 
monodentate

>  <Delta_cm-1>  (1) 
20000

>  <DeltaConfidence>  (1) 
estimated

>  <SMILES>  (1) 
[H]C([H])([H])C(=O)[O-]

>  <NetFormalCharge>  (1) 
-1

$$$$
