
     RDKit          3D

 14 14  0  0  0  0  0  0  0  0999 V2000
    0.2487   -1.0705    0.5473 C   0  0  0  0  0  0  0  0  0  0  0  0
   -1.1486   -1.1274    0.5731 C   0  0  0  0  0  0  0  0  0  0  0  0
   -1.9023   -0.0795    0.0362 C   0  0  0  0  0  0  0  0  0  0  0  0
   -1.2596    1.0268   -0.5273 C   0  0  0  0  0  0  0  0  0  0  0  0
    0.1376    1.0866   -0.5546 C   0  0  0  0  0  0  0  0  0  0  0  0
    0.8989    0.0376   -0.0171 C   0  0  0  0  0  0  0  0  0  0  0  0
    2.3274    0.0973   -0.0442 N   0  0  0  0  0  0  0  0  0  0  0  0
    0.8235   -1.8872    0.9657 H   0  0  0  0  0  0  0  0  0  0  0  0
   -1.6470   -1.9836    1.0092 H   0  0  0  0  0  0  0  0  0  0  0  0
   -2.9835   -0.1247    0.0567 H   0  0  0  0  0  0  0  0  0  0  0  0
   -1.8438    1.8377   -0.9428 H   0  0  0  0  0  0  0  0  0  0  0  0
    0.6260    1.9477   -0.9933 H   0  0  0  0  0  0  0  0  0  0  0  0
    2.8202    0.9178   -0.4622 H   0  0  0  0  0  0  0  0  0  0  0  0
    2.9024   -0.6786    0.3534 H   0  0  0  0  0  0  0  0  0  0  0  0
  1  2  2  0
  2  3  1  0
  3  4  2  0
  4  5  1  0
  5  6  2  0
  6  7  1  0
  6  1  1  0
  1  8  1  0
  2  9  1  0
  3 10  1  0
  4 11  1  0
  5 12  1  0
  7 13  1  0
  7 14  1  0
M  END
>  <LigandName>  (1) 
Aniline

>  <SMILES>  (1) 
c1ccccc1N

>  <FieldStrength>  (1) 
moderate

>  <Delta_cm-1>  (1) 
21000

>  <DonorAtom>  (1) 
N

>  <Denticity>  (1) 
1

>  <DenticityDescription>  (1) 
monodentate

>  <MolecularWeight>  (1) 
93.13

>  <HDonors>  (1) 
1

>  <HAcceptors>  (1) 
1

>  <LogP>  (1) 
1.27

>  <NumAtoms>  (1) 
14

>  <NetFormalCharge>  (1) 
0

$$$$
