
     RDKit          3D

 14 14  0  0  0  0  0  0  0  0999 V2000
    0.2211   -1.1132    0.4681 C   0  0  0  0  0  0  0  0  0  0  0  0
   -1.1765   -1.1238    0.5211 C   0  0  0  0  0  0  0  0  0  0  0  0
   -1.9028   -0.0165    0.0730 C   0  0  0  0  0  0  0  0  0  0  0  0
   -1.2323    1.1030   -0.4287 C   0  0  0  0  0  0  0  0  0  0  0  0
    0.1653    1.1166   -0.4830 C   0  0  0  0  0  0  0  0  0  0  0  0
    0.8991    0.0078   -0.0345 C   0  0  0  0  0  0  0  0  0  0  0  0
    2.3280    0.0202   -0.0893 N   0  0  0  0  0  0  0  0  0  0  0  0
    0.7746   -1.9758    0.8176 H   0  0  0  0  0  0  0  0  0  0  0  0
   -1.6964   -1.9901    0.9094 H   0  0  0  0  0  0  0  0  0  0  0  0
   -2.9843   -0.0259    0.1145 H   0  0  0  0  0  0  0  0  0  0  0  0
   -1.7953    1.9599   -0.7754 H   0  0  0  0  0  0  0  0  0  0  0  0
    0.6753    1.9883   -0.8733 H   0  0  0  0  0  0  0  0  0  0  0  0
    2.8828   -0.8003    0.2421 H   0  0  0  0  0  0  0  0  0  0  0  0
    2.8415    0.8499   -0.4618 H   0  0  0  0  0  0  0  0  0  0  0  0
  1  2  2  0
  2  3  1  0
  3  4  2  0
  4  5  1  0
  5  6  2  0
  6  7  1  0
  6  1  1  0
  1  8  1  0
  2  9  1  0
  3 10  1  0
  4 11  1  0
  5 12  1  0
  7 13  1  0
  7 14  1  0
M  END
>  <LigandName>  (1) 
Aniline

>  <SMILES>  (1) 
c1ccccc1N

>  <FieldStrength>  (1) 
moderate

>  <Delta_cm-1>  (1) 
21000

>  <DonorAtom>  (1) 
N

>  <Denticity>  (1) 
1

>  <DenticityDescription>  (1) 
monodentate

>  <MolecularWeight>  (1) 
93.13

>  <HDonors>  (1) 
1

>  <HAcceptors>  (1) 
1

>  <LogP>  (1) 
1.27

>  <NumAtoms>  (1) 
14

>  <NetFormalCharge>  (1) 
0

$$$$
