
     RDKit          3D

 14 14  0  0  0  0  0  0  0  0999 V2000
    0.1617   -1.0796    0.5620 C   0  0  0  0  0  0  0  0  0  0  0  0
   -1.2255   -0.9635    0.6991 C   0  0  0  0  0  0  0  0  0  0  0  0
   -1.8886    0.1560    0.1878 C   0  0  0  0  0  0  0  0  0  0  0  0
   -1.1653    1.1610   -0.4614 C   0  0  0  0  0  0  0  0  0  0  0  0
    0.2219    1.0479   -0.6001 C   0  0  0  0  0  0  0  0  0  0  0  0
    0.8924   -0.0737   -0.0887 C   0  0  0  0  0  0  0  0  0  0  0  0
    2.3106   -0.1909   -0.2297 N   0  0  0  0  0  0  0  0  0  0  0  0
    0.6660   -1.9505    0.9614 H   0  0  0  0  0  0  0  0  0  0  0  0
   -1.7862   -1.7411    1.2015 H   0  0  0  0  0  0  0  0  0  0  0  0
   -2.9620    0.2447    0.2945 H   0  0  0  0  0  0  0  0  0  0  0  0
   -1.6795    2.0275   -0.8570 H   0  0  0  0  0  0  0  0  0  0  0  0
    0.7730    1.8316   -1.1045 H   0  0  0  0  0  0  0  0  0  0  0  0
    2.8630    0.5525   -0.7124 H   0  0  0  0  0  0  0  0  0  0  0  0
    2.8184   -1.0219    0.1476 H   0  0  0  0  0  0  0  0  0  0  0  0
  1  2  2  0
  2  3  1  0
  3  4  2  0
  4  5  1  0
  5  6  2  0
  6  7  1  0
  6  1  1  0
  1  8  1  0
  2  9  1  0
  3 10  1  0
  4 11  1  0
  5 12  1  0
  7 13  1  0
  7 14  1  0
M  END
>  <LigandName>  (1) 
Aniline

>  <SMILES>  (1) 
c1ccccc1N

>  <FieldStrength>  (1) 
moderate

>  <Delta_cm-1>  (1) 
21000

>  <DonorAtom>  (1) 
N

>  <Denticity>  (1) 
1

>  <DenticityDescription>  (1) 
monodentate

>  <MolecularWeight>  (1) 
93.13

>  <HDonors>  (1) 
1

>  <HAcceptors>  (1) 
1

>  <LogP>  (1) 
1.27

>  <NumAtoms>  (1) 
14

>  <NetFormalCharge>  (1) 
0

$$$$
