
     RDKit          3D

 20 21  0  0  0  0  0  0  0  0999 V2000
   -2.8654   -0.7911   -0.7581 C   0  0  0  0  0  0  0  0  0  0  0  0
   -3.5395    0.1222    0.0507 C   0  0  0  0  0  0  0  0  0  0  0  0
   -2.8029    0.9966    0.8482 C   0  0  0  0  0  0  0  0  0  0  0  0
   -1.4444    0.9521    0.8308 N   0  0  0  0  0  0  0  0  0  0  0  0
   -0.7486    0.0732    0.0532 C   0  0  0  0  0  0  0  0  0  0  0  0
   -1.4688   -0.8233   -0.7637 C   0  0  0  0  0  0  0  0  0  0  0  0
    0.7377    0.1100    0.1111 C   0  0  0  0  0  0  0  0  0  0  0  0
    1.5627   -0.7480   -0.6456 C   0  0  0  0  0  0  0  0  0  0  0  0
    2.9513   -0.6468   -0.5315 C   0  0  0  0  0  0  0  0  0  0  0  0
    3.5144    0.2973    0.3255 C   0  0  0  0  0  0  0  0  0  0  0  0
    2.6756    1.1326    1.0616 C   0  0  0  0  0  0  0  0  0  0  0  0
    1.3265    1.0209    0.9388 N   0  0  0  0  0  0  0  0  0  0  0  0
   -3.4253   -1.4757   -1.3823 H   0  0  0  0  0  0  0  0  0  0  0  0
   -4.6213    0.1522    0.0596 H   0  0  0  0  0  0  0  0  0  0  0  0
   -3.3099    1.7118    1.4819 H   0  0  0  0  0  0  0  0  0  0  0  0
   -0.9826   -1.5436   -1.4024 H   0  0  0  0  0  0  0  0  0  0  0  0
    1.1638   -1.4903   -1.3188 H   0  0  0  0  0  0  0  0  0  0  0  0
    3.5913   -1.3016   -1.1089 H   0  0  0  0  0  0  0  0  0  0  0  0
    4.5895    0.3807    0.4184 H   0  0  0  0  0  0  0  0  0  0  0  0
    3.0959    1.8707    1.7315 H   0  0  0  0  0  0  0  0  0  0  0  0
  1  2  2  0
  2  3  1  0
  3  4  2  0
  4  5  1  0
  5  6  2  0
  5  7  1  0
  7  8  2  0
  8  9  1  0
  9 10  2  0
 10 11  1  0
 11 12  2  0
  6  1  1  0
 12  7  1  0
  1 13  1  0
  2 14  1  0
  3 15  1  0
  6 16  1  0
  8 17  1  0
  9 18  1  0
 10 19  1  0
 11 20  1  0
M  END
>  <LigandName>  (1) 
bipy

>  <SMILES>  (1) 
c1ccnc(c1)c2ccccn2

>  <FieldStrength>  (1) 
strong

>  <Delta_cm-1>  (1) 
26000

>  <DonorAtom>  (1) 
N,N

>  <Denticity>  (1) 
2

>  <DenticityDescription>  (1) 
bidentate

>  <MolecularWeight>  (1) 
156.19

>  <HDonors>  (1) 
0

>  <HAcceptors>  (1) 
2

>  <LogP>  (1) 
2.14

>  <NumAtoms>  (1) 
20

>  <NetFormalCharge>  (1) 
0

$$$$
