
     RDKit          3D

 20 21  0  0  0  0  0  0  0  0999 V2000
   -2.7299    0.9741   -1.0048 C   0  0  0  0  0  0  0  0  0  0  0  0
   -2.9081    2.0195   -0.1003 C   0  0  0  0  0  0  0  0  0  0  0  0
   -1.9231    2.2673    0.8544 C   0  0  0  0  0  0  0  0  0  0  0  0
   -0.8059    1.4940    0.8953 N   0  0  0  0  0  0  0  0  0  0  0  0
   -0.5951    0.4623    0.0279 C   0  0  0  0  0  0  0  0  0  0  0  0
   -1.5757    0.1892   -0.9486 C   0  0  0  0  0  0  0  0  0  0  0  0
    0.6633   -0.3203    0.1615 C   0  0  0  0  0  0  0  0  0  0  0  0
    0.9910   -1.4069   -0.6760 C   0  0  0  0  0  0  0  0  0  0  0  0
    2.1949   -2.0884   -0.4818 C   0  0  0  0  0  0  0  0  0  0  0  0
    3.0642   -1.6944    0.5340 C   0  0  0  0  0  0  0  0  0  0  0  0
    2.7154   -0.6172    1.3470 C   0  0  0  0  0  0  0  0  0  0  0  0
    1.5401    0.0350    1.1445 N   0  0  0  0  0  0  0  0  0  0  0  0
   -3.4871    0.7709   -1.7512 H   0  0  0  0  0  0  0  0  0  0  0  0
   -3.8001    2.6313   -0.1386 H   0  0  0  0  0  0  0  0  0  0  0  0
   -2.0452    3.0746    1.5640 H   0  0  0  0  0  0  0  0  0  0  0  0
   -1.4731   -0.6106   -1.6649 H   0  0  0  0  0  0  0  0  0  0  0  0
    0.3442   -1.7406   -1.4719 H   0  0  0  0  0  0  0  0  0  0  0  0
    2.4536   -2.9233   -1.1203 H   0  0  0  0  0  0  0  0  0  0  0  0
    3.9984   -2.2183    0.6897 H   0  0  0  0  0  0  0  0  0  0  0  0
    3.3783   -0.2981    2.1401 H   0  0  0  0  0  0  0  0  0  0  0  0
  1  2  2  0
  2  3  1  0
  3  4  2  0
  4  5  1  0
  5  6  2  0
  5  7  1  0
  7  8  2  0
  8  9  1  0
  9 10  2  0
 10 11  1  0
 11 12  2  0
  6  1  1  0
 12  7  1  0
  1 13  1  0
  2 14  1  0
  3 15  1  0
  6 16  1  0
  8 17  1  0
  9 18  1  0
 10 19  1  0
 11 20  1  0
M  END
>  <LigandName>  (1) 
bipy

>  <SMILES>  (1) 
c1ccnc(c1)c2ccccn2

>  <FieldStrength>  (1) 
strong

>  <Delta_cm-1>  (1) 
26000

>  <DonorAtom>  (1) 
N,N

>  <Denticity>  (1) 
2

>  <DenticityDescription>  (1) 
bidentate

>  <MolecularWeight>  (1) 
156.19

>  <HDonors>  (1) 
0

>  <HAcceptors>  (1) 
2

>  <LogP>  (1) 
2.14

>  <NumAtoms>  (1) 
20

>  <NetFormalCharge>  (1) 
0

$$$$
