
     RDKit          3D

  6  5  0  0  0  0  0  0  0  0999 V2000
   -1.2123   -1.2556    0.0394 O   0  0  0  0  0  0  0  0  0  0  0  0
   -0.7263   -0.0947    0.0104 C   0  0  0  0  0  0  0  0  0  0  0  0
   -1.5750    1.0052   -0.0016 O   0  0  0  0  0  1  0  0  0  0  0  0
    0.7263    0.0947   -0.0104 C   0  0  0  0  0  0  0  0  0  0  0  0
    1.2123    1.2556   -0.0394 O   0  0  0  0  0  0  0  0  0  0  0  0
    1.5750   -1.0052    0.0016 O   0  0  0  0  0  1  0  0  0  0  0  0
  1  2  2  0
  2  3  1  0
  2  4  1  0
  4  5  2  0
  4  6  1  0
M  CHG  2   3  -1   6  -1
M  END
>  <LigandName>  (1) 
C₂O₄²⁻

>  <SMILES>  (1) 
O=C([O-])C(=O)[O-]

>  <FieldStrength>  (1) 
moderate

>  <Delta_cm-1>  (1) 
20000

>  <DonorAtom>  (1) 
O,O

>  <Denticity>  (1) 
6

>  <DenticityDescription>  (1) 
hexadentate

>  <MolecularWeight>  (1) 
88.02

>  <HDonors>  (1) 
0

>  <HAcceptors>  (1) 
4

>  <LogP>  (1) 
-3.51

>  <NumAtoms>  (1) 
6

>  <NetFormalCharge>  (1) 
-2

$$$$
