
     RDKit          3D

  6  5  0  0  0  0  0  0  0  0999 V2000
   -1.2312   -1.2373    0.0328 O   0  0  0  0  0  0  0  0  0  0  0  0
   -0.7276   -0.0837    0.0138 C   0  0  0  0  0  0  0  0  0  0  0  0
   -1.5594    1.0292    0.0192 O   0  0  0  0  0  0  0  0  0  0  0  0
    0.7276    0.0837   -0.0138 C   0  0  0  0  0  0  0  0  0  0  0  0
    1.2312    1.2373   -0.0328 O   0  0  0  0  0  0  0  0  0  0  0  0
    1.5594   -1.0292   -0.0192 O   0  0  0  0  0  0  0  0  0  0  0  0
  1  2  2  0
  2  3  1  0
  2  4  1  0
  4  5  2  0
  4  6  1  0
M  CHG  2   3  -1   6  -1
M  END
>  <LigandName>  (1) 
C₂O₄²⁻

>  <SMILES>  (1) 
O=C([O-])C(=O)[O-]

>  <FieldStrength>  (1) 
moderate

>  <MolecularWeight>  (1) 
88.02

>  <HDonors>  (1) 
0

>  <HAcceptors>  (1) 
4

>  <LogP>  (1) 
-3.51

>  <NumAtoms>  (1) 
6

>  <NetFormalCharge>  (1) 
-2

$$$$
