
     RDKit          3D

  4  3  0  0  0  0  0  0  0  0999 V2000
    0.0007   -0.0021    0.2774 C   0  0  0  0  0  0  0  0  0  0  0  0
   -0.8779   -0.5682   -0.0943 H   0  0  0  0  0  0  0  0  0  0  0  0
   -0.0541    1.0452   -0.0846 H   0  0  0  0  0  0  0  0  0  0  0  0
    0.9313   -0.4749   -0.0984 H   0  0  0  0  0  0  0  0  0  0  0  0
  1  2  1  0
  1  3  1  0
  1  4  1  0
M  CHG  1   1  -1
M  END
>  <LigandName>  (1) 
CH₃⁻

>  <SMILES>  (1) 
[CH3-]

>  <FieldStrength>  (1) 
very strong

>  <Delta_cm-1>  (1) 
31000

>  <DonorAtom>  (1) 
C

>  <Denticity>  (1) 
0

>  <DenticityDescription>  (1) 
non-dentate

>  <MolecularWeight>  (1) 
15.03

>  <HDonors>  (1) 
0

>  <HAcceptors>  (1) 
0

>  <LogP>  (1) 
0.45

>  <NumAtoms>  (1) 
4

>  <NetFormalCharge>  (1) 
-1

$$$$
