
     RDKit          3D

  4  3  0  0  0  0  0  0  0  0999 V2000
    0.0003    0.0011    0.2774 C   0  0  0  0  0  3  0  0  0  0  0  0
    1.0351   -0.1495   -0.0931 H   0  0  0  0  0  0  0  0  0  0  0  0
   -0.6469   -0.8223   -0.0885 H   0  0  0  0  0  0  0  0  0  0  0  0
   -0.3886    0.9708   -0.0958 H   0  0  0  0  0  0  0  0  0  0  0  0
  1  2  1  0
  1  3  1  0
  1  4  1  0
M  CHG  1   1  -1
M  END
>  <LigandName>  (1) 
CH₃⁻

>  <SMILES>  (1) 
[CH3-]

>  <FieldStrength>  (1) 
very strong

>  <Delta_cm-1>  (1) 
31000

>  <DonorAtom>  (1) 
C

>  <Denticity>  (1) 
1

>  <DenticityDescription>  (1) 
monodentate

>  <MolecularWeight>  (1) 
15.03

>  <HDonors>  (1) 
0

>  <HAcceptors>  (1) 
0

>  <LogP>  (1) 
0.45

>  <NumAtoms>  (1) 
4

>  <NetFormalCharge>  (1) 
-1

$$$$
