
     RDKit          3D

 12 11  0  0  0  0  0  0  0  0999 V2000
   -0.9273   -0.9152   -0.5303 C   0  0  0  0  0  0  0  0  0  0  0  0
    0.1105   -0.0270   -0.0010 N   0  0  0  0  0  0  0  0  0  0  0  0
   -0.2275    1.2741    0.5766 C   0  0  0  0  0  0  0  0  0  0  0  0
    1.4885   -0.4247   -0.0418 C   0  0  0  0  0  0  0  0  0  0  0  0
    1.8254   -1.5362   -0.5301 O   0  0  0  0  0  0  0  0  0  0  0  0
   -1.9388   -0.4693   -0.4278 H   0  0  0  0  0  0  0  0  0  0  0  0
   -0.9132   -1.8782    0.0225 H   0  0  0  0  0  0  0  0  0  0  0  0
   -0.7396   -1.1095   -1.6075 H   0  0  0  0  0  0  0  0  0  0  0  0
    0.2808    2.0796    0.0056 H   0  0  0  0  0  0  0  0  0  0  0  0
    0.1074    1.3114    1.6348 H   0  0  0  0  0  0  0  0  0  0  0  0
   -1.3212    1.4628    0.5491 H   0  0  0  0  0  0  0  0  0  0  0  0
    2.2550    0.2323    0.3497 H   0  0  0  0  0  0  0  0  0  0  0  0
  1  2  1  0
  2  3  1  0
  2  4  1  0
  4  5  2  0
  1  6  1  0
  1  7  1  0
  1  8  1  0
  3  9  1  0
  3 10  1  0
  3 11  1  0
  4 12  1  0
M  END
>  <LigandName>  (1) 
DMF

>  <SMILES>  (1) 
CN(C)C=O

>  <FieldStrength>  (1) 
moderate-strong

>  <Delta_cm-1>  (1) 
22000

>  <DonorAtom>  (1) 
O

>  <Denticity>  (1) 
0

>  <DenticityDescription>  (1) 
non-dentate

>  <MolecularWeight>  (1) 
73.09

>  <HDonors>  (1) 
0

>  <HAcceptors>  (1) 
1

>  <LogP>  (1) 
-0.3

>  <NumAtoms>  (1) 
12

>  <NetFormalCharge>  (1) 
0

$$$$
