
     RDKit          3D

 12 11  0  0  0  0  0  0  0  0999 V2000
   -1.0318   -0.9253   -0.2411 C   0  0  0  0  0  0  0  0  0  0  0  0
    0.0969   -0.0369    0.0468 N   0  0  0  0  0  0  0  0  0  0  0  0
    0.0335    1.3927   -0.2582 C   0  0  0  0  0  0  0  0  0  0  0  0
    1.2940   -0.5616    0.6386 C   0  0  0  0  0  0  0  0  0  0  0  0
    1.3927   -1.7863    0.9180 O   0  0  0  0  0  0  0  0  0  0  0  0
   -1.3863   -1.3966    0.6998 H   0  0  0  0  0  0  0  0  0  0  0  0
   -0.7122   -1.7186   -0.9494 H   0  0  0  0  0  0  0  0  0  0  0  0
   -1.8810   -0.3735   -0.6960 H   0  0  0  0  0  0  0  0  0  0  0  0
    0.8404    1.6582   -0.9735 H   0  0  0  0  0  0  0  0  0  0  0  0
    0.1667    1.9800    0.6749 H   0  0  0  0  0  0  0  0  0  0  0  0
   -0.9409    1.6721   -0.7110 H   0  0  0  0  0  0  0  0  0  0  0  0
    2.1279    0.0956    0.8511 H   0  0  0  0  0  0  0  0  0  0  0  0
  1  2  1  0
  2  3  1  0
  2  4  1  0
  4  5  2  0
  1  6  1  0
  1  7  1  0
  1  8  1  0
  3  9  1  0
  3 10  1  0
  3 11  1  0
  4 12  1  0
M  END
>  <LigandName>  (1) 
DMF

>  <SMILES>  (1) 
CN(C)C=O

>  <FieldStrength>  (1) 
moderate-strong

>  <Delta_cm-1>  (1) 
22000

>  <DonorAtom>  (1) 
O

>  <Denticity>  (1) 
1

>  <DenticityDescription>  (1) 
monodentate

>  <MolecularWeight>  (1) 
73.09

>  <HDonors>  (1) 
0

>  <HAcceptors>  (1) 
1

>  <LogP>  (1) 
-0.3

>  <NumAtoms>  (1) 
12

>  <NetFormalCharge>  (1) 
0

$$$$
