
     RDKit          3D

 10  9  0  0  0  0  0  0  0  0999 V2000
   -1.4200   -0.1040    0.0402 C   0  0  0  0  0  0  0  0  0  0  0  0
    0.1461    0.5203    0.6757 S   0  0  0  0  0  0  0  0  0  0  0  0
    0.1774    1.9641    0.1928 O   0  0  0  0  0  0  0  0  0  0  0  0
    1.3889   -0.2933   -0.3440 C   0  0  0  0  0  0  0  0  0  0  0  0
   -2.2583    0.4126    0.5513 H   0  0  0  0  0  0  0  0  0  0  0  0
   -1.4893   -1.1942    0.2340 H   0  0  0  0  0  0  0  0  0  0  0  0
   -1.4855    0.0809   -1.0522 H   0  0  0  0  0  0  0  0  0  0  0  0
    1.1837   -0.0990   -1.4173 H   0  0  0  0  0  0  0  0  0  0  0  0
    1.3632   -1.3865   -0.1562 H   0  0  0  0  0  0  0  0  0  0  0  0
    2.3938    0.0990   -0.0850 H   0  0  0  0  0  0  0  0  0  0  0  0
  1  2  1  0
  2  3  2  0
  2  4  1  0
  1  5  1  0
  1  6  1  0
  1  7  1  0
  4  8  1  0
  4  9  1  0
  4 10  1  0
M  END
>  <LigandName>  (1) 
DMSO

>  <SMILES>  (1) 
CS(=O)C

>  <FieldStrength>  (1) 
moderate

>  <Delta_cm-1>  (1) 
21000

>  <DonorAtom>  (1) 
S

>  <Denticity>  (1) 
1

>  <DenticityDescription>  (1) 
monodentate

>  <MolecularWeight>  (1) 
78.14

>  <HDonors>  (1) 
0

>  <HAcceptors>  (1) 
1

>  <LogP>  (1) 
-0.01

>  <NumAtoms>  (1) 
10

>  <NetFormalCharge>  (1) 
0

$$$$
