
     RDKit          3D

 12 11  0  0  0  0  0  0  0  0999 V2000
    1.3774    0.7652    0.1347 N   0  0  0  0  0  0  0  0  0  0  0  0
    0.7336   -0.5379   -0.0047 C   0  0  0  0  0  0  0  0  0  0  0  0
   -0.7810   -0.4173    0.1767 C   0  0  0  0  0  0  0  0  0  0  0  0
   -1.3667    0.3809   -0.8968 N   0  0  0  0  0  0  0  0  0  0  0  0
    2.3960    0.6394   -0.0658 H   0  0  0  0  0  0  0  0  0  0  0  0
    1.3061    1.0597    1.1360 H   0  0  0  0  0  0  0  0  0  0  0  0
    0.9509   -0.9538   -1.0131 H   0  0  0  0  0  0  0  0  0  0  0  0
    1.1404   -1.2413    0.7557 H   0  0  0  0  0  0  0  0  0  0  0  0
   -1.2218   -1.4380    0.1534 H   0  0  0  0  0  0  0  0  0  0  0  0
   -1.0147    0.0370    1.1657 H   0  0  0  0  0  0  0  0  0  0  0  0
   -2.4067    0.3229   -0.8043 H   0  0  0  0  0  0  0  0  0  0  0  0
   -1.1135    1.3831   -0.7374 H   0  0  0  0  0  0  0  0  0  0  0  0
  1  2  1  0
  2  3  1  0
  3  4  1  0
  1  5  1  0
  1  6  1  0
  2  7  1  0
  2  8  1  0
  3  9  1  0
  3 10  1  0
  4 11  1  0
  4 12  1  0
M  END
>  <LigandName>  (1) 
en

>  <SMILES>  (1) 
[NH2]CC[NH2]

>  <FieldStrength>  (1) 
moderate-strong

>  <Delta_cm-1>  (1) 
25000

>  <DonorAtom>  (1) 
N,N

>  <Denticity>  (1) 
2

>  <DenticityDescription>  (1) 
bidentate

>  <MolecularWeight>  (1) 
60.1

>  <HDonors>  (1) 
2

>  <HAcceptors>  (1) 
2

>  <LogP>  (1) 
-1.1

>  <NumAtoms>  (1) 
12

>  <NetFormalCharge>  (1) 
0

$$$$
