
     RDKit          3D

  9  8  0  0  0  0  0  0  0  0999 V2000
    0.9270    0.0231   -0.0547 C   0  0  0  0  0  0  0  0  0  0  0  0
   -0.5372   -0.3937    0.0093 C   0  0  0  0  0  0  0  0  0  0  0  0
   -1.3604    0.6453   -0.4456 O   0  0  0  0  0  0  0  0  0  0  0  0
    1.5704   -0.8176    0.2801 H   0  0  0  0  0  0  0  0  0  0  0  0
    1.2001    0.2931   -1.0968 H   0  0  0  0  0  0  0  0  0  0  0  0
    1.1044    0.8969    0.6076 H   0  0  0  0  0  0  0  0  0  0  0  0
   -0.8064   -0.6782    1.0518 H   0  0  0  0  0  0  0  0  0  0  0  0
   -0.6906   -1.2813   -0.6401 H   0  0  0  0  0  0  0  0  0  0  0  0
   -1.4074    1.3124    0.2884 H   0  0  0  0  0  0  0  0  0  0  0  0
  1  2  1  0
  2  3  1  0
  1  4  1  0
  1  5  1  0
  1  6  1  0
  2  7  1  0
  2  8  1  0
  3  9  1  0
M  END
>  <LigandName>  (1) 
EtOH

>  <SMILES>  (1) 
CCO

>  <FieldStrength>  (1) 
moderate

>  <Delta_cm-1>  (1) 
20000

>  <DonorAtom>  (1) 
O

>  <Denticity>  (1) 
1

>  <DenticityDescription>  (1) 
monodentate

>  <MolecularWeight>  (1) 
46.07

>  <HDonors>  (1) 
1

>  <HAcceptors>  (1) 
1

>  <LogP>  (1) 
-0.0

>  <NumAtoms>  (1) 
9

>  <NetFormalCharge>  (1) 
0

$$$$
