
     RDKit          3D

  9  8  0  0  0  0  0  0  0  0999 V2000
   -0.9046   -0.1924   -0.0865 C   0  0  0  0  0  0  0  0  0  0  0  0
    0.4478    0.4776    0.1230 C   0  0  0  0  0  0  0  0  0  0  0  0
    1.4523   -0.2302   -0.5510 O   0  0  0  0  0  0  0  0  0  0  0  0
   -1.6959    0.3930    0.4273 H   0  0  0  0  0  0  0  0  0  0  0  0
   -1.1400   -0.2426   -1.1708 H   0  0  0  0  0  0  0  0  0  0  0  0
   -0.8899   -1.2210    0.3321 H   0  0  0  0  0  0  0  0  0  0  0  0
    0.4071    1.5113   -0.2805 H   0  0  0  0  0  0  0  0  0  0  0  0
    0.6765    0.5405    1.2111 H   0  0  0  0  0  0  0  0  0  0  0  0
    1.6469   -1.0362   -0.0047 H   0  0  0  0  0  0  0  0  0  0  0  0
  1  2  1  0
  2  3  1  0
  1  4  1  0
  1  5  1  0
  1  6  1  0
  2  7  1  0
  2  8  1  0
  3  9  1  0
M  END
>  <LigandName>  (1) 
EtOH

>  <SMILES>  (1) 
CCO

>  <FieldStrength>  (1) 
moderate

>  <Delta_cm-1>  (1) 
20000

>  <DonorAtom>  (1) 
O

>  <Denticity>  (1) 
1

>  <DenticityDescription>  (1) 
monodentate

>  <MolecularWeight>  (1) 
46.07

>  <HDonors>  (1) 
1

>  <HAcceptors>  (1) 
1

>  <LogP>  (1) 
-0.0

>  <NumAtoms>  (1) 
9

>  <NetFormalCharge>  (1) 
0

$$$$
