
     RDKit          3D

  1  0  0  0  0  0  0  0  0  0999 V2000
    4.0000    0.0000    0.0000 F   0  0  0  0  0 15  0  0  0  0  0  0
M  CHG  1   1  -1
M  END
>  <LigandName>  (1) 
Fâ»

>  <SMILES>  (1) 
[F-]

>  <FieldStrength>  (1) 
weak

>  <Delta_cm-1>  (1) 
18000

>  <DonorAtom>  (1) 
F

>  <Denticity>  (1) 
1

>  <DenticityDescription>  (1) 
monodentate

>  <MolecularWeight>  (1) 
19.0

>  <HDonors>  (1) 
0

>  <HAcceptors>  (1) 
0

>  <LogP>  (1) 
-3.0

>  <NumAtoms>  (1) 
1

>  <NetFormalCharge>  (1) 
-1

$$$$
