
     RDKit          3D

  4  3  0  0  0  0  0  0  0  0999 V2000
   -0.0406    0.0519   -0.0011 C   0  0  0  0  0  0  0  0  0  0  0  0
   -0.9001   -0.8174    0.2954 O   0  0  0  0  0  0  0  0  0  0  0  0
    1.2407   -0.3358   -0.3681 O   0  0  0  0  0  1  0  0  0  0  0  0
   -0.3000    1.1013    0.0299 H   0  0  0  0  0  0  0  0  0  0  0  0
  1  2  2  0
  1  3  1  0
  1  4  1  0
M  CHG  1   3  -1
M  END
>  <LigandName>  (1) 
Formate

>  <SMILES>  (1) 
C(=O)[O-]

>  <FieldStrength>  (1) 
moderate

>  <Delta_cm-1>  (1) 
20000

>  <DonorAtom>  (1) 
O

>  <Denticity>  (1) 
1

>  <DenticityDescription>  (1) 
monodentate

>  <MolecularWeight>  (1) 
45.02

>  <HDonors>  (1) 
0

>  <HAcceptors>  (1) 
2

>  <LogP>  (1) 
-1.63

>  <NumAtoms>  (1) 
4

>  <NetFormalCharge>  (1) 
-1

$$$$
