
     RDKit          3D

  4  3  0  0  0  0  0  0  0  0999 V2000
   -0.0413    0.0512    0.0602 C   0  0  0  0  0  0  0  0  0  0  0  0
   -0.9265   -0.8323   -0.0743 O   0  0  0  0  0  0  0  0  0  0  0  0
    1.2682   -0.3151    0.3393 O   0  0  0  0  0  1  0  0  0  0  0  0
   -0.3004    1.0962   -0.0416 H   0  0  0  0  0  0  0  0  0  0  0  0
  1  2  2  0
  1  3  1  0
  1  4  1  0
M  CHG  1   3  -1
M  END
>  <LigandName>  (1) 
Formate

>  <SMILES>  (1) 
C(=O)[O-]

>  <FieldStrength>  (1) 
moderate

>  <Delta_cm-1>  (1) 
20000

>  <DonorAtom>  (1) 
O

>  <Denticity>  (1) 
1

>  <DenticityDescription>  (1) 
monodentate

>  <MolecularWeight>  (1) 
45.02

>  <HDonors>  (1) 
0

>  <HAcceptors>  (1) 
2

>  <LogP>  (1) 
-1.63

>  <NumAtoms>  (1) 
4

>  <NetFormalCharge>  (1) 
-1

$$$$
