
     RDKit          3D

  4  3  0  0  0  0  0  0  0  0999 V2000
   -0.0358    0.0532    0.0527 C   0  0  0  0  0  0  0  0  0  0  0  0
   -1.0230   -0.7228    0.1285 O   0  0  0  0  0  0  0  0  0  0  0  0
    1.2396   -0.4168    0.3341 O   0  0  0  0  0  0  0  0  0  0  0  0
   -0.1808    1.0864   -0.2318 H   0  0  0  0  0  0  0  0  0  0  0  0
  1  2  2  0
  1  3  1  0
  1  4  1  0
M  CHG  1   3  -1
M  END
>  <LigandName>  (1) 
Formate

>  <SMILES>  (1) 
C(=O)[O-]

>  <FieldStrength>  (1) 
moderate

>  <MolecularWeight>  (1) 
45.02

>  <HDonors>  (1) 
0

>  <HAcceptors>  (1) 
2

>  <LogP>  (1) 
-1.63

>  <NumAtoms>  (1) 
4

>  <NetFormalCharge>  (1) 
-1

$$$$
