
     RDKit          3D

  1  0  0  0  0  0  0  0  0  0999 V2000
    4.0000    0.0000    0.0000 H   0  0  0  0  0 15  0  0  0  0  0  0
M  CHG  1   1  -1
M  END
>  <LigandName>  (1) 
Hâ»

>  <SMILES>  (1) 
[H-]

>  <FieldStrength>  (1) 
very strong

>  <Delta_cm-1>  (1) 
31000

>  <DonorAtom>  (1) 
H

>  <Denticity>  (1) 
1

>  <DenticityDescription>  (1) 
monodentate

>  <MolecularWeight>  (1) 
1.01

>  <HDonors>  (1) 
0

>  <HAcceptors>  (1) 
0

>  <LogP>  (1) 
0.11

>  <NumAtoms>  (1) 
1

>  <NetFormalCharge>  (1) 
-1

$$$$
