
     RDKit          3D

  9  9  0  0  0  0  0  0  0  0999 V2000
    0.6160    0.6823   -0.1646 C   0  0  0  0  0  0  0  0  0  0  0  0
    1.0697   -0.6113   -0.0469 C   0  0  0  0  0  0  0  0  0  0  0  0
    0.0530   -1.4114    0.3319 N   0  0  0  0  0  0  0  0  0  0  0  0
   -1.0027   -0.5774    0.4361 C   0  0  0  0  0  0  0  0  0  0  0  0
   -0.6897    0.6973    0.1409 N   0  0  0  0  0  0  0  0  0  0  0  0
    1.1952    1.5499   -0.4519 H   0  0  0  0  0  0  0  0  0  0  0  0
    2.0805   -0.9523   -0.2261 H   0  0  0  0  0  0  0  0  0  0  0  0
   -1.9939   -0.9004    0.7261 H   0  0  0  0  0  0  0  0  0  0  0  0
   -1.3280    1.5233    0.1480 H   0  0  0  0  0  0  0  0  0  0  0  0
  1  2  2  0
  2  3  1  0
  3  4  2  0
  4  5  1  0
  5  1  1  0
  1  6  1  0
  2  7  1  0
  4  8  1  0
  5  9  1  0
M  END
>  <LigandName>  (1) 
Imidazole

>  <SMILES>  (1) 
c1cnc[nH]1

>  <FieldStrength>  (1) 
moderate-strong

>  <Delta_cm-1>  (1) 
24000

>  <DonorAtom>  (1) 
N

>  <Denticity>  (1) 
2

>  <DenticityDescription>  (1) 
bidentate

>  <MolecularWeight>  (1) 
68.08

>  <HDonors>  (1) 
1

>  <HAcceptors>  (1) 
1

>  <LogP>  (1) 
0.41

>  <NumAtoms>  (1) 
9

>  <NetFormalCharge>  (1) 
0

$$$$
