
     RDKit          3D

  9  9  0  0  0  0  0  0  0  0999 V2000
    0.6147    0.6843   -0.1624 C   0  0  0  0  0  0  0  0  0  0  0  0
    1.0696   -0.6097   -0.0541 C   0  0  0  0  0  0  0  0  0  0  0  0
    0.0547   -1.4127    0.3232 N   0  0  0  0  0  0  0  0  0  0  0  0
   -1.0013   -0.5801    0.4359 C   0  0  0  0  0  0  0  0  0  0  0  0
   -0.6900    0.6966    0.1473 N   0  0  0  0  0  0  0  0  0  0  0  0
    1.1924    1.5540   -0.4464 H   0  0  0  0  0  0  0  0  0  0  0  0
    2.0800   -0.9490   -0.2386 H   0  0  0  0  0  0  0  0  0  0  0  0
   -1.9913   -0.9055    0.7271 H   0  0  0  0  0  0  0  0  0  0  0  0
   -1.3288    1.5221    0.1615 H   0  0  0  0  0  0  0  0  0  0  0  0
  1  2  2  0
  2  3  1  0
  3  4  2  0
  4  5  1  0
  5  1  1  0
  1  6  1  0
  2  7  1  0
  4  8  1  0
  5  9  1  0
M  END
>  <LigandName>  (1) 
Imidazole

>  <SMILES>  (1) 
c1cnc[nH]1

>  <FieldStrength>  (1) 
moderate-strong

>  <Delta_cm-1>  (1) 
24000

>  <DonorAtom>  (1) 
N

>  <Denticity>  (1) 
1

>  <DenticityDescription>  (1) 
monodentate

>  <MolecularWeight>  (1) 
68.08

>  <HDonors>  (1) 
1

>  <HAcceptors>  (1) 
1

>  <LogP>  (1) 
0.41

>  <NumAtoms>  (1) 
9

>  <NetFormalCharge>  (1) 
0

$$$$
