
     RDKit          3D

  9  9  0  0  0  0  0  0  0  0999 V2000
    0.6588    0.6889   -0.2860 C   0  0  0  0  0  0  0  0  0  0  0  0
    1.0720   -0.5981   -0.0289 C   0  0  0  0  0  0  0  0  0  0  0  0
   -0.0023   -1.4094    0.0413 N   0  0  0  0  0  0  0  0  0  0  0  0
   -1.0511   -0.5887   -0.1768 C   0  0  0  0  0  0  0  0  0  0  0  0
   -0.6790    0.6885   -0.3781 N   0  0  0  0  0  0  0  0  0  0  0  0
    1.2873    1.5625   -0.3979 H   0  0  0  0  0  0  0  0  0  0  0  0
    2.0945   -0.9268    0.1000 H   0  0  0  0  0  0  0  0  0  0  0  0
   -2.0801   -0.9231   -0.1883 H   0  0  0  0  0  0  0  0  0  0  0  0
   -1.3002    1.5061   -0.5661 H   0  0  0  0  0  0  0  0  0  0  0  0
  1  2  2  0
  2  3  1  0
  3  4  2  0
  4  5  1  0
  5  1  1  0
  1  6  1  0
  2  7  1  0
  4  8  1  0
  5  9  1  0
M  END
>  <LigandName>  (1) 
Imidazole

>  <SMILES>  (1) 
c1cnc[nH]1

>  <FieldStrength>  (1) 
moderate-strong

>  <Delta_cm-1>  (1) 
24000

>  <DonorAtom>  (1) 
N

>  <Denticity>  (1) 
2

>  <DenticityDescription>  (1) 
bidentate

>  <MolecularWeight>  (1) 
68.08

>  <HDonors>  (1) 
1

>  <HAcceptors>  (1) 
1

>  <LogP>  (1) 
0.41

>  <NumAtoms>  (1) 
9

>  <NetFormalCharge>  (1) 
0

$$$$
