K
     RDKit          2D

  1  0  0  0  0  0  0  0  0  0999 V2000
    0.0000    0.0000    0.0000 K   0  0  0  0  0 15  0  0  0  0  0  0
M  CHG  1   1   1
M  END
>  <LigandName>  (1) 
K

>  <Denticity>  (1) 
1

>  <DenticityDescription>  (1) 
monodentate

>  <Delta_cm-1>  (1) 
20000

>  <DeltaConfidence>  (1) 
default

>  <SMILES>  (1) 
[K+]

>  <NetFormalCharge>  (1) 
1

$$$$
