
     RDKit          3D

  6  5  0  0  0  0  0  0  0  0999 V2000
   -0.4955    0.0085    0.0018 C   0  0  0  0  0  0  0  0  0  0  0  0
    0.9674   -0.0166   -0.0034 C   0  0  0  0  0  0  0  0  0  0  0  0
    2.1244   -0.0365   -0.0075 N   0  0  0  0  0  0  0  0  0  0  0  0
   -0.8792   -0.6103   -0.8354 H   0  0  0  0  0  0  0  0  0  0  0  0
   -0.8691   -0.3986    0.9638 H   0  0  0  0  0  0  0  0  0  0  0  0
   -0.8480    1.0535   -0.1192 H   0  0  0  0  0  0  0  0  0  0  0  0
  1  2  1  0
  2  3  3  0
  1  4  1  0
  1  5  1  0
  1  6  1  0
M  END
>  <LigandName>  (1) 
MeCN

>  <SMILES>  (1) 
CC#N

>  <FieldStrength>  (1) 
moderate-strong

>  <Delta_cm-1>  (1) 
24000

>  <DonorAtom>  (1) 
N

>  <Denticity>  (1) 
1

>  <DenticityDescription>  (1) 
monodentate

>  <MolecularWeight>  (1) 
41.05

>  <HDonors>  (1) 
0

>  <HAcceptors>  (1) 
1

>  <LogP>  (1) 
0.53

>  <NumAtoms>  (1) 
6

>  <NetFormalCharge>  (1) 
0

$$$$
