
     RDKit          3D

  6  5  0  0  0  0  0  0  0  0999 V2000
   -0.4956    0.0043    0.0005 C   0  0  0  0  0  0  0  0  0  0  0  0
    0.9675   -0.0084   -0.0010 C   0  0  0  0  0  0  0  0  0  0  0  0
    2.1247   -0.0185   -0.0022 N   0  0  0  0  0  0  0  0  0  0  0  0
   -0.8718   -0.6164   -0.8385 H   0  0  0  0  0  0  0  0  0  0  0  0
   -0.8682   -0.4075    0.9610 H   0  0  0  0  0  0  0  0  0  0  0  0
   -0.8566    1.0464   -0.1197 H   0  0  0  0  0  0  0  0  0  0  0  0
  1  2  1  0
  2  3  3  0
  1  4  1  0
  1  5  1  0
  1  6  1  0
M  END
>  <LigandName>  (1) 
MeCN

>  <SMILES>  (1) 
CC#N

>  <FieldStrength>  (1) 
moderate-strong

>  <MolecularWeight>  (1) 
41.05

>  <HDonors>  (1) 
0

>  <HAcceptors>  (1) 
1

>  <LogP>  (1) 
0.53

>  <NumAtoms>  (1) 
6

>  <NetFormalCharge>  (1) 
0

$$$$
