
     RDKit          3D

  6  5  0  0  0  0  0  0  0  0999 V2000
   -0.3538   -0.0437   -0.0377 C   0  0  0  0  0  0  0  0  0  0  0  0
    0.9822   -0.4497   -0.1147 O   0  0  0  0  0  0  0  0  0  0  0  0
   -0.6217    0.1963    1.0142 H   0  0  0  0  0  0  0  0  0  0  0  0
   -0.5215    0.8476   -0.6806 H   0  0  0  0  0  0  0  0  0  0  0  0
   -1.0058   -0.8680   -0.3930 H   0  0  0  0  0  0  0  0  0  0  0  0
    1.5204    0.3174    0.2119 H   0  0  0  0  0  0  0  0  0  0  0  0
  1  2  1  0
  1  3  1  0
  1  4  1  0
  1  5  1  0
  2  6  1  0
M  END
>  <LigandName>  (1) 
MeOH

>  <SMILES>  (1) 
CO

>  <FieldStrength>  (1) 
moderate

>  <Delta_cm-1>  (1) 
20000

>  <DonorAtom>  (1) 
O

>  <Denticity>  (1) 
1

>  <DenticityDescription>  (1) 
monodentate

>  <MolecularWeight>  (1) 
32.04

>  <HDonors>  (1) 
1

>  <HAcceptors>  (1) 
1

>  <LogP>  (1) 
-0.39

>  <NumAtoms>  (1) 
6

>  <NetFormalCharge>  (1) 
0

$$$$
