
     RDKit          3D

  6  5  0  0  0  0  0  0  0  0999 V2000
   -0.3562   -0.0047   -0.0398 C   0  0  0  0  0  0  0  0  0  0  0  0
    0.9279   -0.5543   -0.1095 O   0  0  0  0  0  0  0  0  0  0  0  0
   -0.6026    0.2625    1.0108 H   0  0  0  0  0  0  0  0  0  0  0  0
   -1.0922   -0.7526   -0.4000 H   0  0  0  0  0  0  0  0  0  0  0  0
   -0.4216    0.8999   -0.6826 H   0  0  0  0  0  0  0  0  0  0  0  0
    1.5447    0.1493    0.2212 H   0  0  0  0  0  0  0  0  0  0  0  0
  1  2  1  0
  1  3  1  0
  1  4  1  0
  1  5  1  0
  2  6  1  0
M  END
>  <LigandName>  (1) 
MeOH

>  <SMILES>  (1) 
CO

>  <FieldStrength>  (1) 
moderate

>  <Delta_cm-1>  (1) 
20000

>  <DonorAtom>  (1) 
O

>  <Denticity>  (1) 
1

>  <DenticityDescription>  (1) 
monodentate

>  <MolecularWeight>  (1) 
32.04

>  <HDonors>  (1) 
1

>  <HAcceptors>  (1) 
1

>  <LogP>  (1) 
-0.39

>  <NumAtoms>  (1) 
6

>  <NetFormalCharge>  (1) 
0

$$$$
