MLB
     RDKit          3D

 45 46  0  0  1  0  0  0  0  0999 V2000
    2.7210   -0.1030   -1.6670 C   0  0  1  0  0  0  0  0  0  0  0  0
    3.9730    0.4930   -1.0170 C   0  0  1  0  0  0  0  0  0  0  0  0
    4.1400   -0.0960    0.3870 C   0  0  2  0  0  0  0  0  0  0  0  0
    2.8730    0.1850    1.2000 C   0  0  1  0  0  0  0  0  0  0  0  0
    1.6640   -0.3990    0.4650 C   0  0  1  0  0  0  0  0  0  0  0  0
    0.3870   -0.0700    1.2410 C   0  0  0  0  0  0  0  0  0  0  0  0
    2.8840   -1.5160   -1.8060 O   0  0  0  0  0  0  0  0  0  0  0  0
    5.1200    0.1740   -1.8080 O   0  0  0  0  0  0  0  0  0  0  0  0
    5.2640    0.5100    1.0290 O   0  0  0  0  0  0  0  0  0  0  0  0
    2.9870   -0.4230    2.4880 O   0  0  0  0  0  0  0  0  0  0  0  0
    1.5850    0.1680   -0.8450 O   0  0  0  0  0  0  0  0  0  0  0  0
   -0.7280   -0.7130    0.6190 O   0  0  0  0  0  0  0  0  0  0  0  0
   -1.9770   -0.4700    1.2690 C   0  0  2  0  0  0  0  0  0  0  0  0
   -3.0470   -1.3920    0.6800 C   0  0  1  0  0  0  0  0  0  0  0  0
   -3.2270   -1.0690   -0.8060 C   0  0  2  0  0  0  0  0  0  0  0  0
   -3.5890    0.4110   -0.9560 C   0  0  2  0  0  0  0  0  0  0  0  0
   -2.4970    1.2640   -0.3040 C   0  0  1  0  0  0  0  0  0  0  0  0
   -2.8810    2.7420   -0.3970 C   0  0  0  0  0  0  0  0  0  0  0  0
   -2.6380   -2.7530    0.8280 O   0  0  0  0  0  0  0  0  0  0  0  0
   -4.2760   -1.8750   -1.3470 O   0  0  0  0  0  0  0  0  0  0  0  0
   -4.8400    0.6640   -0.3130 O   0  0  0  0  0  0  0  0  0  0  0  0
   -2.3610    0.8920    1.0690 O   0  0  0  0  0  0  0  0  0  0  0  0
   -1.8110    3.5450    0.1060 O   0  0  0  0  0  0  0  0  0  0  0  0
    2.5740    0.3440   -2.6500 H   0  0  0  0  0  0  0  0  0  0  0  0
    3.8670    1.5760   -0.9480 H   0  0  0  0  0  0  0  0  0  0  0  0
    4.2950   -1.1720    0.3150 H   0  0  0  0  0  0  0  0  0  0  0  0
    2.7450    1.2620    1.3150 H   0  0  0  0  0  0  0  0  0  0  0  0
    1.7730   -1.4810    0.3870 H   0  0  0  0  0  0  0  0  0  0  0  0
    0.2300    1.0080    1.2420 H   0  0  0  0  0  0  0  0  0  0  0  0
    0.4840   -0.4250    2.2670 H   0  0  0  0  0  0  0  0  0  0  0  0
    2.1260   -1.9610   -2.2110 H   0  0  0  0  0  0  0  0  0  0  0  0
    5.0820    0.5170   -2.7120 H   0  0  0  0  0  0  0  0  0  0  0  0
    6.1010    0.3770    0.5630 H   0  0  0  0  0  0  0  0  0  0  0  0
    3.7370   -0.1020    3.0090 H   0  0  0  0  0  0  0  0  0  0  0  0
   -1.8750   -0.6650    2.3360 H   0  0  0  0  0  0  0  0  0  0  0  0
   -3.9910   -1.2360    1.2040 H   0  0  0  0  0  0  0  0  0  0  0  0
   -2.2980   -1.2750   -1.3390 H   0  0  0  0  0  0  0  0  0  0  0  0
   -3.6660    0.6620   -2.0140 H   0  0  0  0  0  0  0  0  0  0  0  0
   -1.5520    1.1010   -0.8210 H   0  0  0  0  0  0  0  0  0  0  0  0
   -3.7790    2.9220    0.1940 H   0  0  0  0  0  0  0  0  0  0  0  0
   -3.0730    3.0030   -1.4380 H   0  0  0  0  0  0  0  0  0  0  0  0
   -2.5010   -3.0260    1.7450 H   0  0  0  0  0  0  0  0  0  0  0  0
   -4.1160   -2.8270   -1.2800 H   0  0  0  0  0  0  0  0  0  0  0  0
   -5.5780    0.1530   -0.6730 H   0  0  0  0  0  0  0  0  0  0  0  0
   -1.9860    4.4960    0.0780 H   0  0  0  0  0  0  0  0  0  0  0  0
  1  7  1  0
  1 11  1  0
  1 24  1  6
  2  3  1  0
  2  1  1  0
  2 25  1  1
  3  4  1  0
  3 26  1  6
  4 10  1  0
  4  5  1  0
  4 27  1  1
  5  6  1  0
  5 28  1  6
  6 12  1  0
  6 29  1  0
  6 30  1  0
  7 31  1  0
  8  2  1  0
  8 32  1  0
  9  3  1  0
  9 33  1  0
 10 34  1  0
 11  5  1  0
 12 13  1  0
 13 14  1  0
 13 35  1  1
 14 15  1  0
 14 19  1  0
 14 36  1  1
 15 20  1  0
 15 37  1  6
 16 21  1  0
 16 15  1  0
 16 38  1  6
 17 16  1  0
 17 39  1  6
 18 17  1  0
 18 41  1  0
 18 40  1  0
 19 42  1  0
 20 43  1  0
 21 44  1  0
 22 17  1  0
 22 13  1  0
 23 18  1  0
 23 45  1  0
M  END
>  <NetFormalCharge>  (1) 
0

$$$$
