MLD
     RDKit          3D

123125  0  0  1  0  0  0  0  0999 V2000
   10.7480   -2.3840    0.9430 C   0  0  0  0  0  0  0  0  0  0  0  0
   10.0830   -1.4460   -0.0310 C   0  0  0  0  0  0  0  0  0  0  0  0
    9.2930   -1.8760   -0.8450 O   0  0  0  0  0  0  0  0  0  0  0  0
   10.3680   -0.1280    0.0010 N   0  0  0  0  0  0  0  0  0  0  0  0
    9.7220    0.7830   -0.9470 C   0  0  2  0  0  0  0  0  0  0  0  0
   10.6040    2.0210   -1.1500 C   0  0  1  0  0  0  0  0  0  0  0  0
   11.8170    1.6460   -1.8060 O   0  0  0  0  0  0  0  0  0  0  0  0
    9.8400    3.0290   -2.0170 C   0  0  2  0  0  0  0  0  0  0  0  0
   10.5800    4.2490   -2.0980 O   0  0  0  0  0  0  0  0  0  0  0  0
    8.4750    3.2990   -1.3810 C   0  0  1  0  0  0  0  0  0  0  0  0
    7.7180    4.3300   -2.2220 C   0  0  0  0  0  0  0  0  0  0  0  0
    6.4970    4.6760   -1.5660 O   0  0  0  0  0  0  0  0  0  0  0  0
    7.7210    2.0900   -1.3220 O   0  0  0  0  0  0  0  0  0  0  0  0
    8.3660    1.2240   -0.3910 C   0  0  1  0  0  0  0  0  0  0  0  0
    7.5480    0.0730   -0.1670 O   0  0  0  0  0  0  0  0  0  0  0  0
    6.3500    0.5340    0.4620 C   0  0  2  0  0  0  0  0  0  0  0  0
    6.5300    0.5180    1.9910 C   0  0  2  0  0  0  0  0  0  0  0  0
    6.9400   -0.8500    2.3390 O   0  0  0  0  0  0  0  0  0  0  0  0
    5.1430    0.6450    2.6650 C   0  0  0  0  0  0  0  0  0  0  0  0
    4.6810   -0.7090    2.8180 O   0  0  0  0  0  0  0  0  0  0  0  0
    5.6870   -1.5640    2.2460 C   0  0  1  0  0  0  0  0  0  0  0  0
    5.3690   -1.7480    0.7540 C   0  0  2  0  0  0  0  0  0  0  0  0
    6.4850   -2.4280    0.0910 N   0  0  0  0  0  0  0  0  0  0  0  0
    6.5520   -3.7740    0.0960 C   0  0  0  0  0  0  0  0  0  0  0  0
    7.6990   -4.4740   -0.5850 C   0  0  0  0  0  0  0  0  0  0  0  0
    5.6880   -4.4220    0.6490 O   0  0  0  0  0  0  0  0  0  0  0  0
    5.1600   -0.3690    0.1190 C   0  0  1  0  0  0  0  0  0  0  0  0
    3.9580    0.2130    0.6280 O   0  0  0  0  0  0  0  0  0  0  0  0
    2.9010   -0.1940   -0.2430 C   0  0  2  0  0  0  0  0  0  0  0  0
    2.7440    0.8310   -1.3680 C   0  0  0  0  0  0  0  0  0  0  0  0
    1.6140   -0.2840    0.5370 C   0  0  0  0  0  0  0  0  0  0  0  0
    1.5840    0.0610    1.6990 O   0  0  0  0  0  0  0  0  0  0  0  0
    0.4970   -0.7480   -0.0580 N   0  0  0  0  0  0  0  0  0  0  0  0
   -0.7540   -0.8360    0.7000 C   0  0  1  0  0  0  0  0  0  0  0  0
   -1.4700    0.5160    0.6600 C   0  0  0  0  0  0  0  0  0  0  0  0
   -1.6380   -1.8920    0.0880 C   0  0  0  0  0  0  0  0  0  0  0  0
   -1.2610   -2.5100   -0.8840 O   0  0  0  0  0  0  0  0  0  0  0  0
   -2.8490   -2.1490    0.6230 N   0  0  0  0  0  0  0  0  0  0  0  0
   -3.7080   -3.1750    0.0290 C   0  0  1  0  0  0  0  0  0  0  0  0
   -3.3360   -4.5260    0.5840 C   0  0  0  0  0  0  0  0  0  0  0  0
   -3.9960   -5.6230    0.1800 O   0  0  0  0  0  0  0  0  0  0  0  0
   -2.4440   -4.6210    1.3940 O   0  0  0  0  0  0  0  0  0  0  0  0
   -5.1700   -2.8720    0.3620 C   0  0  0  0  0  0  0  0  0  0  0  0
   -5.5840   -1.5600   -0.3070 C   0  0  0  0  0  0  0  0  0  0  0  0
   -7.0240   -1.2600    0.0220 C   0  0  0  0  0  0  0  0  0  0  0  0
   -7.6570   -2.0220    0.7220 O   0  0  0  0  0  0  0  0  0  0  0  0
   -7.6090   -0.1470   -0.4630 N   0  0  0  0  0  0  0  0  0  0  0  0
   -9.0090    0.1440   -0.1440 C   0  0  2  0  0  0  0  0  0  0  0  0
   -9.9060   -0.5770   -1.1160 C   0  0  0  0  0  0  0  0  0  0  0  0
   -9.4240   -1.2650   -1.9910 O   0  0  0  0  0  0  0  0  0  0  0  0
  -11.2450   -0.4560   -1.0150 N   0  0  0  0  0  0  0  0  0  0  0  0
  -12.1170   -1.1560   -1.9610 C   0  0  2  0  0  0  0  0  0  0  0  0
  -12.2840   -0.3100   -3.2240 C   0  0  0  0  0  0  0  0  0  0  0  0
  -13.4660   -1.3830   -1.3270 C   0  0  0  0  0  0  0  0  0  0  0  0
  -13.6760   -0.9990   -0.2010 O   0  0  0  0  0  0  0  0  0  0  0  0
  -14.4330   -2.0120   -2.0140 O   0  0  0  0  0  0  0  0  0  0  0  0
   -9.2530    1.6510   -0.2450 C   0  0  0  0  0  0  0  0  0  0  0  0
   -8.4340    2.3730    0.8270 C   0  0  0  0  0  0  0  0  0  0  0  0
   -8.6780    3.8800    0.7260 C   0  0  0  0  0  0  0  0  0  0  0  0
   -7.8600    4.6020    1.7990 C   0  0  2  0  0  0  0  0  0  0  0  0
   -8.1930    6.0720    1.7800 C   0  0  0  0  0  0  0  0  0  0  0  0
   -7.4550    6.8510    1.2240 O   0  0  0  0  0  0  0  0  0  0  0  0
   -9.3080    6.5150    2.3800 O   0  0  0  0  0  0  0  0  0  0  0  0
   -6.4280    4.4210    1.5260 N   0  0  0  0  0  0  0  0  0  0  0  0
   11.4190   -1.8190    1.5900 H   0  0  0  0  0  0  0  0  0  0  0  0
    9.9870   -2.8750    1.5500 H   0  0  0  0  0  0  0  0  0  0  0  0
   11.3160   -3.1340    0.3950 H   0  0  0  0  0  0  0  0  0  0  0  0
   11.0000    0.2160    0.6510 H   0  0  0  0  0  0  0  0  0  0  0  0
    9.5790    0.2770   -1.9010 H   0  0  0  0  0  0  0  0  0  0  0  0
   10.8340    2.4700   -0.1840 H   0  0  0  0  0  0  0  0  0  0  0  0
   12.3320    2.4560   -1.9240 H   0  0  0  0  0  0  0  0  0  0  0  0
    9.7020    2.6190   -3.0170 H   0  0  0  0  0  0  0  0  0  0  0  0
   10.0610    4.8540   -2.6450 H   0  0  0  0  0  0  0  0  0  0  0  0
    8.6150    3.6880   -0.3720 H   0  0  0  0  0  0  0  0  0  0  0  0
    8.3330    5.2220   -2.3410 H   0  0  0  0  0  0  0  0  0  0  0  0
    7.4970    3.9070   -3.2020 H   0  0  0  0  0  0  0  0  0  0  0  0
    6.0530    5.3260   -2.1280 H   0  0  0  0  0  0  0  0  0  0  0  0
    8.5150    1.7510    0.5520 H   0  0  0  0  0  0  0  0  0  0  0  0
    6.1290    1.5480    0.1300 H   0  0  0  0  0  0  0  0  0  0  0  0
    7.2380    1.2710    2.3390 H   0  0  0  0  0  0  0  0  0  0  0  0
    4.4620    1.2080    2.0270 H   0  0  0  0  0  0  0  0  0  0  0  0
    5.2380    1.1260    3.6380 H   0  0  0  0  0  0  0  0  0  0  0  0
    5.7360   -2.5220    2.7620 H   0  0  0  0  0  0  0  0  0  0  0  0
    4.4620   -2.3420    0.6440 H   0  0  0  0  0  0  0  0  0  0  0  0
    7.1760   -1.9100   -0.3510 H   0  0  0  0  0  0  0  0  0  0  0  0
    8.3690   -3.7330   -1.0220 H   0  0  0  0  0  0  0  0  0  0  0  0
    8.2450   -5.0720    0.1450 H   0  0  0  0  0  0  0  0  0  0  0  0
    7.3140   -5.1240   -1.3710 H   0  0  0  0  0  0  0  0  0  0  0  0
    5.0830   -0.4740   -0.9630 H   0  0  0  0  0  0  0  0  0  0  0  0
    3.1360   -1.1690   -0.6700 H   0  0  0  0  0  0  0  0  0  0  0  0
    3.6750    0.8970   -1.9320 H   0  0  0  0  0  0  0  0  0  0  0  0
    1.9380    0.5210   -2.0330 H   0  0  0  0  0  0  0  0  0  0  0  0
    2.5090    1.8060   -0.9410 H   0  0  0  0  0  0  0  0  0  0  0  0
    0.5210   -1.0240   -0.9880 H   0  0  0  0  0  0  0  0  0  0  0  0
   -0.5340   -1.1000    1.7340 H   0  0  0  0  0  0  0  0  0  0  0  0
   -2.4010    0.4500    1.2230 H   0  0  0  0  0  0  0  0  0  0  0  0
   -0.8300    1.2790    1.1020 H   0  0  0  0  0  0  0  0  0  0  0  0
   -1.6900    0.7800   -0.3750 H   0  0  0  0  0  0  0  0  0  0  0  0
   -3.1500   -1.6540    1.4010 H   0  0  0  0  0  0  0  0  0  0  0  0
   -3.5760   -3.1790   -1.0530 H   0  0  0  0  0  0  0  0  0  0  0  0
   -3.7570   -6.4890    0.5370 H   0  0  0  0  0  0  0  0  0  0  0  0
   -5.2850   -2.7800    1.4420 H   0  0  0  0  0  0  0  0  0  0  0  0
   -5.8020   -3.6810   -0.0030 H   0  0  0  0  0  0  0  0  0  0  0  0
   -5.4700   -1.6510   -1.3870 H   0  0  0  0  0  0  0  0  0  0  0  0
   -4.9530   -0.7500    0.0580 H   0  0  0  0  0  0  0  0  0  0  0  0
   -7.1030    0.4620   -1.0230 H   0  0  0  0  0  0  0  0  0  0  0  0
   -9.2280   -0.1920    0.8700 H   0  0  0  0  0  0  0  0  0  0  0  0
  -11.6300    0.0950   -0.3160 H   0  0  0  0  0  0  0  0  0  0  0  0
  -11.6730   -2.1160   -2.2230 H   0  0  0  0  0  0  0  0  0  0  0  0
  -11.3080   -0.1450   -3.6830 H   0  0  0  0  0  0  0  0  0  0  0  0
  -12.9330   -0.8310   -3.9280 H   0  0  0  0  0  0  0  0  0  0  0  0
  -12.7280    0.6510   -2.9620 H   0  0  0  0  0  0  0  0  0  0  0  0
  -15.2980   -2.1580   -1.6070 H   0  0  0  0  0  0  0  0  0  0  0  0
   -8.9500    2.0020   -1.2310 H   0  0  0  0  0  0  0  0  0  0  0  0
  -10.3120    1.8580   -0.0940 H   0  0  0  0  0  0  0  0  0  0  0  0
   -8.7370    2.0210    1.8140 H   0  0  0  0  0  0  0  0  0  0  0  0
   -7.3750    2.1650    0.6770 H   0  0  0  0  0  0  0  0  0  0  0  0
   -8.3750    4.2320   -0.2600 H   0  0  0  0  0  0  0  0  0  0  0  0
   -9.7370    4.0880    0.8770 H   0  0  0  0  0  0  0  0  0  0  0  0
   -8.0980    4.1880    2.7780 H   0  0  0  0  0  0  0  0  0  0  0  0
   -9.5220    7.4580    2.3680 H   0  0  0  0  0  0  0  0  0  0  0  0
   -6.2710    3.4270    1.4460 H   0  0  0  0  0  0  0  0  0  0  0  0
   -6.2530    4.8170    0.6150 H   0  0  0  0  0  0  0  0  0  0  0  0
  1  2  1  0
  1 65  1  0
  1 66  1  0
  1 67  1  0
  2  3  2  0
  2  4  1  0
  4  5  1  0
  4 68  1  0
  5  6  1  0
  5 14  1  0
  5 69  1  6
  6  7  1  0
  6  8  1  0
  6 70  1  1
  7 71  1  0
  8  9  1  0
  8 10  1  0
  8 72  1  6
  9 73  1  0
 10 11  1  0
 10 13  1  0
 10 74  1  1
 11 12  1  0
 11 75  1  0
 11 76  1  0
 12 77  1  0
 13 14  1  0
 14 15  1  0
 14 78  1  1
 15 16  1  0
 16 17  1  0
 16 27  1  0
 16 79  1  6
 17 18  1  0
 17 19  1  0
 17 80  1  6
 18 21  1  0
 19 20  1  0
 19 81  1  0
 19 82  1  0
 20 21  1  0
 21 22  1  0
 21 83  1  1
 22 23  1  0
 22 27  1  0
 22 84  1  1
 23 24  1  0
 23 85  1  0
 24 25  1  0
 24 26  2  0
 25 86  1  0
 25 87  1  0
 25 88  1  0
 27 28  1  0
 27 89  1  6
 28 29  1  0
 29 30  1  0
 29 31  1  0
 29 90  1  6
 30 91  1  0
 30 92  1  0
 30 93  1  0
 31 32  2  0
 31 33  1  0
 33 34  1  0
 33 94  1  0
 34 35  1  0
 34 36  1  0
 34 95  1  1
 35 96  1  0
 35 97  1  0
 35 98  1  0
 36 37  2  0
 36 38  1  0
 38 39  1  0
 38 99  1  0
 39 40  1  0
 39 43  1  0
 39100  1  6
 40 41  1  0
 40 42  2  0
 41101  1  0
 43 44  1  0
 43102  1  0
 43103  1  0
 44 45  1  0
 44104  1  0
 44105  1  0
 45 46  2  0
 45 47  1  0
 47 48  1  0
 47106  1  0
 48 49  1  0
 48 57  1  0
 48107  1  1
 49 50  2  0
 49 51  1  0
 51 52  1  0
 51108  1  0
 52 53  1  0
 52 54  1  0
 52109  1  6
 53110  1  0
 53111  1  0
 53112  1  0
 54 55  2  0
 54 56  1  0
 56113  1  0
 57 58  1  0
 57114  1  0
 57115  1  0
 58 59  1  0
 58116  1  0
 58117  1  0
 59 60  1  0
 59118  1  0
 59119  1  0
 60 61  1  0
 60 64  1  0
 60120  1  1
 61 62  2  0
 61 63  1  0
 63121  1  0
 64122  1  0
 64123  1  0
M  END
>  <NetFormalCharge>  (1) 
0

$$$$
