MLG
     RDKit          3D

 32 32  0  0  1  0  0  0  0  0999 V2000
   -1.0960    0.0140   -1.5200 C   0  0  0  0  0  0  0  0  0  0  0  0
   -1.7060   -0.0260   -2.7580 C   0  0  0  0  0  0  0  0  0  0  0  0
   -0.9380   -0.0320   -3.9090 C   0  0  0  0  0  0  0  0  0  0  0  0
   -1.7080   -0.0840   -5.4650 Cl  0  0  0  0  0  0  0  0  0  0  0  0
    0.4410    0.0030   -3.8230 C   0  0  0  0  0  0  0  0  0  0  0  0
    1.0560    0.0500   -2.5850 C   0  0  0  0  0  0  0  0  0  0  0  0
    2.7880    0.0950   -2.4760 Cl  0  0  0  0  0  0  0  0  0  0  0  0
    0.2870    0.0500   -1.4300 C   0  0  0  0  0  0  0  0  0  0  0  0
    0.8890    0.0900   -0.2110 O   0  0  0  0  0  0  0  0  0  0  0  0
    0.4590    0.1300    2.1660 C   0  0  0  0  0  0  0  0  0  0  0  0
   -0.1530    0.0860    0.7640 C   0  0  0  0  0  0  0  0  0  0  0  0
   -0.6570    0.1260    3.2110 C   0  0  0  0  0  0  0  0  0  0  0  0
   -0.0690    0.1680    4.5560 N   0  0  0  0  0  0  0  0  0  0  0  0
    0.6500   -1.0970    4.7430 C   0  0  0  0  0  0  0  0  0  0  0  0
   -1.1880    0.1610    5.5070 C   0  0  0  0  0  0  0  0  0  0  0  0
   -0.6650    0.2030    6.8820 C   0  0  0  0  0  0  0  0  0  0  0  0
   -0.2470    0.2370    7.9790 C   0  0  0  0  0  0  0  0  0  0  0  0
   -1.6960    0.0180   -0.6220 H   0  0  0  0  0  0  0  0  0  0  0  0
   -2.7830   -0.0540   -2.8280 H   0  0  0  0  0  0  0  0  0  0  0  0
    1.0390   -0.0000   -4.7220 H   0  0  0  0  0  0  0  0  0  0  0  0
    1.0970   -0.7400    2.3110 H   0  0  0  0  0  0  0  0  0  0  0  0
    1.0530    1.0380    2.2730 H   0  0  0  0  0  0  0  0  0  0  0  0
   -0.7480   -0.8210    0.6570 H   0  0  0  0  0  0  0  0  0  0  0  0
   -0.7910    0.9580    0.6190 H   0  0  0  0  0  0  0  0  0  0  0  0
   -1.2520   -0.7810    3.1030 H   0  0  0  0  0  0  0  0  0  0  0  0
   -1.2950    0.9970    3.0660 H   0  0  0  0  0  0  0  0  0  0  0  0
    1.1070   -1.1130    5.7320 H   0  0  0  0  0  0  0  0  0  0  0  0
   -0.0470   -1.9290    4.6520 H   0  0  0  0  0  0  0  0  0  0  0  0
    1.4260   -1.1890    3.9830 H   0  0  0  0  0  0  0  0  0  0  0  0
   -1.8190    1.0330    5.3320 H   0  0  0  0  0  0  0  0  0  0  0  0
   -1.7760   -0.7450    5.3700 H   0  0  0  0  0  0  0  0  0  0  0  0
    0.1260    0.2670    8.9600 H   0  0  0  0  0  0  0  0  0  0  0  0
  1  2  2  0
  1  8  1  0
  1 18  1  0
  2  3  1  0
  2 19  1  0
  3  4  1  0
  3  5  2  0
  5  6  1  0
  5 20  1  0
  6  7  1  0
  6  8  2  0
  8  9  1  0
  9 11  1  0
 10 11  1  0
 10 12  1  0
 10 21  1  0
 10 22  1  0
 11 23  1  0
 11 24  1  0
 12 13  1  0
 12 25  1  0
 12 26  1  0
 13 14  1  0
 13 15  1  0
 14 27  1  0
 14 28  1  0
 14 29  1  0
 15 16  1  0
 15 30  1  0
 15 31  1  0
 16 17  3  0
 17 32  1  0
M  END
>  <NetFormalCharge>  (1) 
0

$$$$
