MLH
     RDKit          3D

 47 49  0  0  0  0  0  0  0  0999 V2000
    4.1670    4.3640    2.0960 C   0  0  0  0  0  0  0  0  0  0  0  0
    3.8140    3.7440    0.7420 C   0  0  0  0  0  0  0  0  0  0  0  0
    2.8360    2.6880    0.9330 O   0  0  0  0  0  0  0  0  0  0  0  0
    2.4160    2.0350   -0.1700 C   0  0  0  0  0  0  0  0  0  0  0  0
    2.8550    2.3420   -1.2620 O   0  0  0  0  0  0  0  0  0  0  0  0
    1.4290    0.9560   -0.0520 C   0  0  0  0  0  0  0  0  0  0  0  0
    1.6890   -0.3710    0.1340 C   0  0  0  0  0  0  0  0  0  0  0  0
    3.0630   -0.9770    0.2560 C   0  0  0  0  0  0  0  0  0  0  0  0
    3.5490   -1.3600   -1.0770 N   0  0  0  0  0  0  0  0  0  0  0  0
    3.7620   -0.1750   -1.9200 C   0  0  0  0  0  0  0  0  0  0  0  0
    4.7740   -2.1640   -0.9800 C   0  0  0  0  0  0  0  0  0  0  0  0
   -0.0390    1.0920   -0.1060 C   0  0  0  0  0  0  0  0  0  0  0  0
   -0.9030    2.1720   -0.2690 C   0  0  0  0  0  0  0  0  0  0  0  0
   -2.2690    1.9600   -0.2750 C   0  0  0  0  0  0  0  0  0  0  0  0
   -3.1170    3.0100   -0.4350 O   0  0  0  0  0  0  0  0  0  0  0  0
   -2.7770    0.6730   -0.1190 C   0  0  0  0  0  0  0  0  0  0  0  0
   -4.6480    0.3970   -0.1310 Br  0  0  0  0  0  0  0  0  0  0  0  0
   -1.9290   -0.4010    0.0430 C   0  0  0  0  0  0  0  0  0  0  0  0
   -0.5520   -0.2040    0.0520 C   0  0  0  0  0  0  0  0  0  0  0  0
    0.5240   -1.0620    0.1940 N   0  0  0  0  0  0  0  0  0  0  0  0
    0.4240   -2.4460    0.3780 C   0  0  0  0  0  0  0  0  0  0  0  0
   -0.1630   -2.9550    1.5300 C   0  0  0  0  0  0  0  0  0  0  0  0
   -0.2610   -4.3210    1.7080 C   0  0  0  0  0  0  0  0  0  0  0  0
    0.2250   -5.1820    0.7420 C   0  0  0  0  0  0  0  0  0  0  0  0
    0.8110   -4.6790   -0.4060 C   0  0  0  0  0  0  0  0  0  0  0  0
    0.9060   -3.3140   -0.5930 C   0  0  0  0  0  0  0  0  0  0  0  0
    4.9000    5.1570    1.9520 H   0  0  0  0  0  0  0  0  0  0  0  0
    3.2680    4.7790    2.5510 H   0  0  0  0  0  0  0  0  0  0  0  0
    4.5840    3.5970    2.7480 H   0  0  0  0  0  0  0  0  0  0  0  0
    3.3970    4.5110    0.0890 H   0  0  0  0  0  0  0  0  0  0  0  0
    4.7130    3.3290    0.2860 H   0  0  0  0  0  0  0  0  0  0  0  0
    3.7440   -0.2480    0.6950 H   0  0  0  0  0  0  0  0  0  0  0  0
    3.0160   -1.8600    0.8930 H   0  0  0  0  0  0  0  0  0  0  0  0
    4.5010    0.4750   -1.4520 H   0  0  0  0  0  0  0  0  0  0  0  0
    4.1210   -0.4870   -2.9000 H   0  0  0  0  0  0  0  0  0  0  0  0
    2.8220    0.3650   -2.0320 H   0  0  0  0  0  0  0  0  0  0  0  0
    4.5700   -3.0700   -0.4090 H   0  0  0  0  0  0  0  0  0  0  0  0
    5.1120   -2.4340   -1.9800 H   0  0  0  0  0  0  0  0  0  0  0  0
    5.5500   -1.5860   -0.4780 H   0  0  0  0  0  0  0  0  0  0  0  0
   -0.5080    3.1700   -0.3900 H   0  0  0  0  0  0  0  0  0  0  0  0
   -3.3410    3.1990   -1.3560 H   0  0  0  0  0  0  0  0  0  0  0  0
   -2.3340   -1.3950    0.1630 H   0  0  0  0  0  0  0  0  0  0  0  0
   -0.5430   -2.2820    2.2850 H   0  0  0  0  0  0  0  0  0  0  0  0
   -0.7170   -4.7170    2.6030 H   0  0  0  0  0  0  0  0  0  0  0  0
    0.1480   -6.2500    0.8840 H   0  0  0  0  0  0  0  0  0  0  0  0
    1.1900   -5.3540   -1.1580 H   0  0  0  0  0  0  0  0  0  0  0  0
    1.3590   -2.9220   -1.4910 H   0  0  0  0  0  0  0  0  0  0  0  0
  1  2  1  0
  1 27  1  0
  1 28  1  0
  1 29  1  0
  2  3  1  0
  2 30  1  0
  2 31  1  0
  4  6  1  0
  4  3  1  0
  5  4  2  0
  6  7  2  0
  7 20  1  0
  7  8  1  0
  8  9  1  0
  8 32  1  0
  8 33  1  0
  9 10  1  0
 10 34  1  0
 10 35  1  0
 10 36  1  0
 11  9  1  0
 11 37  1  0
 11 38  1  0
 11 39  1  0
 12  6  1  0
 12 19  2  0
 13 12  1  0
 13 40  1  0
 14 13  2  0
 14 16  1  0
 15 14  1  0
 15 41  1  0
 16 18  2  0
 17 16  1  0
 18 19  1  0
 18 42  1  0
 19 20  1  0
 20 21  1  0
 21 22  2  0
 22 23  1  0
 22 43  1  0
 23 44  1  0
 24 23  2  0
 24 45  1  0
 25 24  1  0
 25 46  1  0
 26 21  1  0
 26 25  2  0
 26 47  1  0
M  END
>  <NetFormalCharge>  (1) 
0

$$$$
