MLJ
     RDKit          3D

 50 52  0  0  1  0  0  0  0  0999 V2000
    7.9590    0.1340   -0.3820 C   0  0  0  0  0  0  0  0  0  0  0  0
    5.6360   -0.2870   -0.6460 C   0  0  0  0  0  0  0  0  0  0  0  0
    5.4430    0.3540    0.5720 C   0  0  0  0  0  0  0  0  0  0  0  0
    4.1740    0.4870    1.0890 C   0  0  0  0  0  0  0  0  0  0  0  0
    3.0790   -0.0230    0.3870 C   0  0  0  0  0  0  0  0  0  0  0  0
    3.2760   -0.6660   -0.8370 C   0  0  0  0  0  0  0  0  0  0  0  0
    4.5490   -0.7950   -1.3470 C   0  0  0  0  0  0  0  0  0  0  0  0
    1.7160    0.1170    0.9380 C   0  0  0  0  0  0  0  0  0  0  0  0
   -0.6910   -0.2360    0.8060 C   0  0  0  0  0  0  0  0  0  0  0  0
   -1.6970   -0.8750   -0.1530 C   0  0  0  0  0  0  0  0  0  0  0  0
   -3.0880   -0.7320    0.4090 C   0  0  0  0  0  0  0  0  0  0  0  0
   -5.4950   -1.0850    0.2770 C   0  0  2  0  0  0  0  0  0  0  0  0
   -6.3830   -2.1930   -0.2870 C   0  0  0  0  0  0  0  0  0  0  0  0
   -7.8330   -1.9050    0.1220 C   0  0  0  0  0  0  0  0  0  0  0  0
   -8.3170   -0.6810   -0.6530 C   0  0  0  0  0  0  0  0  0  0  0  0
   -7.3390    0.4560   -0.5130 C   0  0  0  0  0  0  0  0  0  0  0  0
   -7.7830    1.7330   -0.8290 C   0  0  0  0  0  0  0  0  0  0  0  0
   -6.9340    2.8160   -0.7250 C   0  0  0  0  0  0  0  0  0  0  0  0
   -5.6310    2.6290   -0.3030 C   0  0  0  0  0  0  0  0  0  0  0  0
   -5.1890    1.3600    0.0130 C   0  0  0  0  0  0  0  0  0  0  0  0
   -6.0420    0.2700   -0.0890 C   0  0  0  0  0  0  0  0  0  0  0  0
    9.1700   -0.0800   -1.0490 F   0  0  0  0  0  0  0  0  0  0  0  0
    7.9980   -0.4920    0.8680 F   0  0  0  0  0  0  0  0  0  0  0  0
    7.7580    1.5080   -0.2100 F   0  0  0  0  0  0  0  0  0  0  0  0
    0.6610   -0.3750    0.2590 N   0  0  0  0  0  0  0  0  0  0  0  0
   -4.1430   -1.2240   -0.2690 N   0  0  0  0  0  0  0  0  0  0  0  0
    6.8870   -0.4110   -1.1550 O   0  0  0  0  0  0  0  0  0  0  0  0
    1.5460    0.6770    2.0040 O   0  0  0  0  0  0  0  0  0  0  0  0
   -3.2580   -0.1740    1.4720 O   0  0  0  0  0  0  0  0  0  0  0  0
    6.2900    0.7470    1.1150 H   0  0  0  0  0  0  0  0  0  0  0  0
    4.0250    0.9840    2.0360 H   0  0  0  0  0  0  0  0  0  0  0  0
    2.4320   -1.0620   -1.3830 H   0  0  0  0  0  0  0  0  0  0  0  0
    4.7020   -1.2890   -2.2960 H   0  0  0  0  0  0  0  0  0  0  0  0
   -0.9270    0.8210    0.9280 H   0  0  0  0  0  0  0  0  0  0  0  0
   -0.7450   -0.7340    1.7740 H   0  0  0  0  0  0  0  0  0  0  0  0
   -1.6440   -0.3770   -1.1210 H   0  0  0  0  0  0  0  0  0  0  0  0
   -1.4620   -1.9320   -0.2750 H   0  0  0  0  0  0  0  0  0  0  0  0
   -5.4540   -1.1750    1.3630 H   0  0  0  0  0  0  0  0  0  0  0  0
   -6.3040   -2.2090   -1.3740 H   0  0  0  0  0  0  0  0  0  0  0  0
   -6.0710   -3.1550    0.1190 H   0  0  0  0  0  0  0  0  0  0  0  0
   -8.4590   -2.7640   -0.1200 H   0  0  0  0  0  0  0  0  0  0  0  0
   -7.8800   -1.7050    1.1920 H   0  0  0  0  0  0  0  0  0  0  0  0
   -8.4190   -0.9400   -1.7070 H   0  0  0  0  0  0  0  0  0  0  0  0
   -9.2870   -0.3700   -0.2640 H   0  0  0  0  0  0  0  0  0  0  0  0
   -8.8000    1.8800   -1.1590 H   0  0  0  0  0  0  0  0  0  0  0  0
   -7.2860    3.8060   -0.9730 H   0  0  0  0  0  0  0  0  0  0  0  0
   -4.9610    3.4720   -0.2210 H   0  0  0  0  0  0  0  0  0  0  0  0
   -4.1710    1.2150    0.3420 H   0  0  0  0  0  0  0  0  0  0  0  0
    0.7970   -0.8220   -0.5910 H   0  0  0  0  0  0  0  0  0  0  0  0
   -4.0080   -1.6710   -1.1200 H   0  0  0  0  0  0  0  0  0  0  0  0
  1 27  1  0
  1 23  1  0
  2  7  2  0
  2 27  1  0
  3  2  1  0
  3 30  1  0
  4  5  1  0
  4  3  2  0
  4 31  1  0
  5  6  2  0
  6  7  1  0
  6 32  1  0
  7 33  1  0
  8 25  1  0
  8  5  1  0
  9 10  1  0
  9 25  1  0
  9 34  1  0
  9 35  1  0
 10 11  1  0
 10 36  1  0
 10 37  1  0
 11 26  1  0
 12 13  1  0
 12 21  1  0
 12 38  1  1
 13 14  1  0
 13 39  1  0
 13 40  1  0
 14 15  1  0
 14 41  1  0
 14 42  1  0
 15 43  1  0
 15 44  1  0
 16 15  1  0
 16 17  2  0
 17 45  1  0
 18 17  1  0
 18 46  1  0
 19 18  2  0
 19 47  1  0
 20 21  2  0
 20 19  1  0
 20 48  1  0
 21 16  1  0
 22  1  1  0
 24  1  1  0
 25 49  1  0
 26 12  1  0
 26 50  1  0
 28  8  2  0
 29 11  2  0
M  END
>  <NetFormalCharge>  (1) 
0

$$$$
