MLK
     RDKit          3D

 99106  0  0  1  0  0  0  0  0999 V2000
    6.0850   -1.5930    2.1710 O   0  0  0  0  0  0  0  0  0  0  0  0
    6.3180   -1.7820    0.9970 C   0  0  0  0  0  0  0  0  0  0  0  0
    6.5710   -3.1310    0.3600 C   0  0  0  0  0  0  0  0  0  0  0  0
    6.8060   -2.7910   -1.1260 C   0  0  2  0  0  0  0  0  0  0  0  0
    8.2110   -3.2130   -1.5600 C   0  0  0  0  0  0  0  0  0  0  0  0
    6.6550   -1.2860   -1.1740 C   0  0  0  0  0  0  0  0  0  0  0  0
    6.7630   -0.6010   -2.1680 O   0  0  0  0  0  0  0  0  0  0  0  0
    6.3910   -0.8310    0.0570 N   0  0  0  0  0  0  0  0  0  0  0  0
    6.2020    0.5240    0.3380 C   0  0  0  0  0  0  0  0  0  0  0  0
    7.2820    1.3200    0.6900 C   0  0  0  0  0  0  0  0  0  0  0  0
    7.0930    2.6600    0.9670 C   0  0  0  0  0  0  0  0  0  0  0  0
    5.8280    3.2200    0.8890 C   0  0  0  0  0  0  0  0  0  0  0  0
    4.7450    2.4460    0.5350 C   0  0  0  0  0  0  0  0  0  0  0  0
    4.9210    1.0890    0.2520 C   0  0  0  0  0  0  0  0  0  0  0  0
    3.7660    0.2550   -0.1270 C   0  0  0  0  0  0  0  0  0  0  0  0
    3.9230   -0.9250   -0.3720 O   0  0  0  0  0  0  0  0  0  0  0  0
    2.5360    0.8000   -0.2020 O   0  0  0  0  0  0  0  0  0  0  0  0
    1.3990   -0.0210   -0.5760 C   0  0  0  0  0  0  0  0  0  0  0  0
    0.1310    0.8370   -0.5860 C   0  0  1  0  0  0  0  0  0  0  0  0
    0.3170    1.9440   -1.6150 C   0  0  0  0  0  0  0  0  0  0  0  0
   -0.8580    2.9140   -1.5040 C   0  0  0  0  0  0  0  0  0  0  0  0
   -2.1550    2.1690   -1.7490 C   0  0  2  0  0  0  0  0  0  0  0  0
   -3.2410    3.0510   -1.4390 O   0  0  0  0  0  0  0  0  0  0  0  0
   -3.5630    3.7480   -2.6450 C   0  0  0  0  0  0  0  0  0  0  0  0
   -2.3300    0.8850   -0.9780 C   0  0  1  0  0  0  0  0  0  0  0  0
   -1.0940   -0.0370   -0.9400 C   0  0  2  0  0  0  0  0  0  0  0  0
   -2.5290    1.1580    0.5390 C   0  0  2  0  0  0  0  0  0  0  0  0
   -1.4280    2.0000    0.9640 N   0  0  0  0  0  0  0  0  0  0  0  0
   -1.6220    2.4370    2.3380 C   0  0  0  0  0  0  0  0  0  0  0  0
   -0.8650    3.7470    2.5680 C   0  0  0  0  0  0  0  0  0  0  0  0
   -0.1100    1.4290    0.8050 C   0  0  0  0  0  0  0  0  0  0  0  0
   -3.5290    0.1330   -1.5270 C   0  0  2  0  0  0  0  0  0  0  0  0
   -4.8620    0.8670   -1.3390 C   0  0  0  0  0  0  0  0  0  0  0  0
   -5.9220   -0.2370   -1.0590 C   0  0  2  0  0  0  0  0  0  0  0  0
   -6.2040   -0.1820    0.4520 C   0  0  1  0  0  0  0  0  0  0  0  0
   -7.0990   -1.2180    0.8620 O   0  0  0  0  0  0  0  0  0  0  0  0
   -7.8280   -0.7150    1.9830 C   0  0  0  0  0  0  0  0  0  0  0  0
   -4.9160   -0.2280    1.2460 C   0  0  0  0  0  0  0  0  0  0  0  0
   -3.7480   -1.2180   -0.8250 C   0  0  2  0  0  0  0  0  0  0  0  0
   -5.1830   -1.5750   -1.3060 C   0  0  1  0  0  0  0  0  0  0  0  0
   -5.7270   -2.6690   -0.5810 O   0  0  0  0  0  0  0  0  0  0  0  0
   -6.6190   -3.3490   -1.4660 C   0  0  0  0  0  0  0  0  0  0  0  0
   -3.7550   -1.0350    0.6850 C   0  0  2  0  0  0  0  0  0  0  0  0
   -3.7550   -2.3370    1.3220 O   0  0  0  0  0  0  0  0  0  0  0  0
   -2.4650   -0.2810    1.1010 C   0  0  2  0  0  0  0  0  0  0  0  0
   -2.2710   -0.3370    2.5230 O   0  0  0  0  0  0  0  0  0  0  0  0
   -1.2690   -0.9000    0.3440 C   0  0  1  0  0  0  0  0  0  0  0  0
   -1.4550   -2.2770    0.0470 O   0  0  0  0  0  0  0  0  0  0  0  0
   -0.8980   -3.0130    1.1370 C   0  0  0  0  0  0  0  0  0  0  0  0
    7.4560   -3.5990    0.7910 H   0  0  0  0  0  0  0  0  0  0  0  0
    5.7010   -3.7780    0.4720 H   0  0  0  0  0  0  0  0  0  0  0  0
    6.0530   -3.2690   -1.7530 H   0  0  0  0  0  0  0  0  0  0  0  0
    8.3260   -4.2880   -1.4210 H   0  0  0  0  0  0  0  0  0  0  0  0
    8.3570   -2.9650   -2.6110 H   0  0  0  0  0  0  0  0  0  0  0  0
    8.9510   -2.6880   -0.9560 H   0  0  0  0  0  0  0  0  0  0  0  0
    8.2710    0.8910    0.7520 H   0  0  0  0  0  0  0  0  0  0  0  0
    7.9360    3.2740    1.2450 H   0  0  0  0  0  0  0  0  0  0  0  0
    5.6910    4.2690    1.1070 H   0  0  0  0  0  0  0  0  0  0  0  0
    3.7610    2.8880    0.4750 H   0  0  0  0  0  0  0  0  0  0  0  0
    1.2840   -0.8320    0.1440 H   0  0  0  0  0  0  0  0  0  0  0  0
    1.5630   -0.4390   -1.5690 H   0  0  0  0  0  0  0  0  0  0  0  0
    1.2520    2.4680   -1.4190 H   0  0  0  0  0  0  0  0  0  0  0  0
    0.3430    1.5080   -2.6130 H   0  0  0  0  0  0  0  0  0  0  0  0
   -0.8670    3.3850   -0.5230 H   0  0  0  0  0  0  0  0  0  0  0  0
   -0.7440    3.6980   -2.2620 H   0  0  0  0  0  0  0  0  0  0  0  0
   -2.2180    1.9310   -2.8190 H   0  0  0  0  0  0  0  0  0  0  0  0
   -4.3890    4.4350   -2.4570 H   0  0  0  0  0  0  0  0  0  0  0  0
   -2.6930    4.3090   -2.9840 H   0  0  0  0  0  0  0  0  0  0  0  0
   -3.8540    3.0310   -3.4120 H   0  0  0  0  0  0  0  0  0  0  0  0
   -0.9590   -0.6220   -1.8500 H   0  0  0  0  0  0  0  0  0  0  0  0
   -3.4800    1.6520    0.7200 H   0  0  0  0  0  0  0  0  0  0  0  0
   -1.2430    1.6750    3.0190 H   0  0  0  0  0  0  0  0  0  0  0  0
   -2.6840    2.5940    2.5230 H   0  0  0  0  0  0  0  0  0  0  0  0
    0.1980    3.5900    2.3830 H   0  0  0  0  0  0  0  0  0  0  0  0
   -1.2430    4.5090    1.8870 H   0  0  0  0  0  0  0  0  0  0  0  0
   -1.0100    4.0750    3.5970 H   0  0  0  0  0  0  0  0  0  0  0  0
    0.6330    2.2300    0.9570 H   0  0  0  0  0  0  0  0  0  0  0  0
    0.0800    0.6830    1.5730 H   0  0  0  0  0  0  0  0  0  0  0  0
   -3.3750   -0.0420   -2.5950 H   0  0  0  0  0  0  0  0  0  0  0  0
   -4.8120    1.5560   -0.5000 H   0  0  0  0  0  0  0  0  0  0  0  0
   -5.1220    1.4050   -2.2520 H   0  0  0  0  0  0  0  0  0  0  0  0
   -6.8210   -0.1190   -1.6770 H   0  0  0  0  0  0  0  0  0  0  0  0
   -6.7090    0.7830    0.6730 H   0  0  0  0  0  0  0  0  0  0  0  0
   -8.5280   -1.4750    2.3330 H   0  0  0  0  0  0  0  0  0  0  0  0
   -7.1340   -0.4640    2.7850 H   0  0  0  0  0  0  0  0  0  0  0  0
   -8.3800    0.1770    1.6870 H   0  0  0  0  0  0  0  0  0  0  0  0
   -4.6030    0.7870    1.4860 H   0  0  0  0  0  0  0  0  0  0  0  0
   -5.1650   -0.6770    2.2320 H   0  0  0  0  0  0  0  0  0  0  0  0
   -3.0440   -1.9760   -1.1770 H   0  0  0  0  0  0  0  0  0  0  0  0
   -5.1650   -1.8080   -2.3800 H   0  0  0  0  0  0  0  0  0  0  0  0
   -7.0630   -4.2010   -0.9510 H   0  0  0  0  0  0  0  0  0  0  0  0
   -7.4060   -2.6660   -1.7840 H   0  0  0  0  0  0  0  0  0  0  0  0
   -6.0670   -3.7000   -2.3390 H   0  0  0  0  0  0  0  0  0  0  0  0
   -4.6040   -2.7500    1.1120 H   0  0  0  0  0  0  0  0  0  0  0  0
   -2.2110   -1.2720    2.7610 H   0  0  0  0  0  0  0  0  0  0  0  0
   -0.3860   -0.8250    0.9920 H   0  0  0  0  0  0  0  0  0  0  0  0
    0.1620   -2.7780    1.2310 H   0  0  0  0  0  0  0  0  0  0  0  0
   -1.4120   -2.7430    2.0590 H   0  0  0  0  0  0  0  0  0  0  0  0
   -1.0180   -4.0810    0.9540 H   0  0  0  0  0  0  0  0  0  0  0  0
  1  2  2  0
  2  3  1  0
  2  8  1  0
  3  4  1  0
  3 50  1  0
  3 51  1  0
  4  5  1  0
  4  6  1  0
  4 52  1  6
  5 53  1  0
  5 54  1  0
  5 55  1  0
  6  7  2  0
  6  8  1  0
  8  9  1  0
  9 10  2  0
  9 14  1  0
 10 11  1  0
 10 56  1  0
 11 12  2  0
 11 57  1  0
 12 13  1  0
 12 58  1  0
 13 14  2  0
 13 59  1  0
 14 15  1  0
 15 16  2  0
 15 17  1  0
 17 18  1  0
 19 18  1  1
 18 60  1  0
 18 61  1  0
 19 20  1  0
 19 26  1  0
 19 31  1  0
 20 21  1  0
 20 62  1  0
 20 63  1  0
 21 22  1  0
 21 64  1  0
 21 65  1  0
 22 23  1  0
 25 22  1  6
 22 66  1  6
 23 24  1  0
 24 67  1  0
 24 68  1  0
 24 69  1  0
 25 26  1  0
 25 27  1  0
 25 32  1  0
 26 47  1  0
 26 70  1  6
 27 28  1  0
 27 45  1  0
 27 71  1  6
 28 29  1  0
 28 31  1  0
 29 30  1  0
 29 72  1  0
 29 73  1  0
 30 74  1  0
 30 75  1  0
 30 76  1  0
 31 77  1  0
 31 78  1  0
 32 33  1  0
 32 39  1  0
 32 79  1  6
 33 34  1  0
 33 80  1  0
 33 81  1  0
 34 35  1  0
 34 40  1  0
 34 82  1  6
 35 36  1  0
 35 38  1  0
 35 83  1  6
 36 37  1  0
 37 84  1  0
 37 85  1  0
 37 86  1  0
 38 43  1  0
 38 87  1  0
 38 88  1  0
 39 40  1  0
 39 43  1  0
 39 89  1  1
 40 41  1  0
 40 90  1  6
 41 42  1  0
 42 91  1  0
 42 92  1  0
 42 93  1  0
 43 44  1  1
 43 45  1  0
 44 94  1  0
 45 46  1  1
 45 47  1  0
 46 95  1  0
 47 48  1  0
 47 96  1  1
 48 49  1  0
 49 97  1  0
 49 98  1  0
 49 99  1  0
M  END
>  <NetFormalCharge>  (1) 
0

$$$$
