MLL
     RDKit          3D

 25 24  0  0  1  0  0  0  0  0999 V2000
    2.7100   -5.2100   -0.8370 N   0  0  0  0  0  0  0  0  0  0  0  0
    1.5160   -4.4650   -0.5300 C   0  0  1  0  0  0  0  0  0  0  0  0
    1.7290   -2.9510   -0.6190 C   0  0  0  0  0  0  0  0  0  0  0  0
    0.4900   -2.1040   -0.2670 C   0  0  0  0  0  0  0  0  0  0  0  0
    0.0090   -2.4520    1.1440 C   0  0  0  0  0  0  0  0  0  0  0  0
    0.7650   -0.6020   -0.3620 C   0  0  0  0  0  0  0  0  0  0  0  0
    0.4680   -4.9020   -1.5350 C   0  0  0  0  0  0  0  0  0  0  0  0
   -0.5590   -5.5080   -1.2590 O   0  0  0  0  0  0  0  0  0  0  0  0
    0.8780   -4.5570   -2.7920 O   0  0  0  0  0  0  0  0  0  0  0  0
    0.0070   -4.9540   -3.8560 C   0  0  0  0  0  0  0  0  0  0  0  0
    3.5710   -4.9650   -0.3780 H   0  0  0  0  0  0  0  0  0  0  0  0
    2.7140   -5.8180   -1.6390 H   0  0  0  0  0  0  0  0  0  0  0  0
    1.2000   -4.7800    0.4690 H   0  0  0  0  0  0  0  0  0  0  0  0
    2.0660   -2.6950   -1.6330 H   0  0  0  0  0  0  0  0  0  0  0  0
    2.5520   -2.6670    0.0520 H   0  0  0  0  0  0  0  0  0  0  0  0
   -0.3230   -2.3490   -0.9630 H   0  0  0  0  0  0  0  0  0  0  0  0
   -0.2320   -3.5170    1.2220 H   0  0  0  0  0  0  0  0  0  0  0  0
   -0.8940   -1.8870    1.3990 H   0  0  0  0  0  0  0  0  0  0  0  0
    0.7750   -2.2220    1.8930 H   0  0  0  0  0  0  0  0  0  0  0  0
    0.9820   -0.3000   -1.3910 H   0  0  0  0  0  0  0  0  0  0  0  0
    1.6150   -0.3140    0.2660 H   0  0  0  0  0  0  0  0  0  0  0  0
   -0.1070   -0.0260   -0.0340 H   0  0  0  0  0  0  0  0  0  0  0  0
    0.2200   -5.9890   -4.1350 H   0  0  0  0  0  0  0  0  0  0  0  0
    0.1550   -4.2950   -4.7150 H   0  0  0  0  0  0  0  0  0  0  0  0
   -1.0280   -4.8780   -3.5140 H   0  0  0  0  0  0  0  0  0  0  0  0
  1  2  1  0
  1 11  1  0
  1 12  1  0
  2  3  1  0
  2  7  1  0
  2 13  1  1
  3  4  1  0
  3 14  1  0
  3 15  1  0
  4  5  1  0
  4  6  1  0
  4 16  1  0
  5 17  1  0
  5 18  1  0
  5 19  1  0
  6 20  1  0
  6 21  1  0
  6 22  1  0
  7  8  2  0
  7  9  1  0
  9 10  1  0
 10 23  1  0
 10 24  1  0
 10 25  1  0
M  END
>  <NetFormalCharge>  (1) 
0

$$$$
