MLM
     RDKit          3D

 12 11  0  0  0  0  0  0  0  0999 V2000
   -0.0700    0.0000   -1.2080 C   0  0  0  0  0  0  0  0  0  0  0  0
   -0.6380    0.0000   -2.4240 O   0  0  0  0  0  0  0  0  0  0  0  0
    1.1320    0.0000   -1.1030 O   0  0  0  0  0  0  0  0  0  0  0  0
   -0.9340   -0.0000    0.0260 C   0  0  0  0  0  0  0  0  0  0  0  0
   -0.0580   -0.0000    1.2520 C   0  0  0  0  0  0  0  0  0  0  0  0
    1.1480    0.0000    1.1350 O   0  0  0  0  0  0  0  0  0  0  0  0
   -0.6160   -0.0000    2.4790 N   0  0  0  0  0  0  0  0  0  0  0  0
   -0.0840    0.0000   -3.2170 H   0  0  0  0  0  0  0  0  0  0  0  0
   -1.5630   -0.8900    0.0290 H   0  0  0  0  0  0  0  0  0  0  0  0
   -1.5640    0.8890    0.0290 H   0  0  0  0  0  0  0  0  0  0  0  0
   -0.0520   -0.0000    3.2680 H   0  0  0  0  0  0  0  0  0  0  0  0
   -1.5810    0.0030    2.5730 H   0  0  0  0  0  0  0  0  0  0  0  0
  1  2  1  0
  1  3  2  0
  1  4  1  0
  2  8  1  0
  4  5  1  0
  4  9  1  0
  4 10  1  0
  5  6  2  0
  5  7  1  0
  7 11  1  0
  7 12  1  0
M  END
>  <NetFormalCharge>  (1) 
0

$$$$
