MLN
     RDKit          3D

 58 58  0  0  1  0  0  0  0  0999 V2000
    2.9750   -0.8880    0.1350 O   0  0  0  0  0  0  0  0  0  0  0  0
    4.5150   -0.7200    0.6000 P   0  0  0  0  0  0  0  0  0  0  0  0
    5.4720   -1.7230    0.0240 O   0  0  0  0  0  0  0  0  0  0  0  0
    4.8550    0.8240    0.2580 O   0  0  0  0  0  0  0  0  0  0  0  0
    4.4180   -0.7180    2.2140 O   0  0  0  0  0  0  0  0  0  0  0  0
    4.8910    1.2220   -1.1040 C   0  0  2  0  0  0  0  0  0  0  0  0
    5.9600    0.4040   -1.8170 C   0  0  0  0  0  0  0  0  0  0  0  0
    5.1740    2.7240   -1.2140 C   0  0  0  0  0  0  0  0  0  0  0  0
    4.0940    3.5640   -0.5220 C   0  0  0  0  0  0  0  0  0  0  0  0
    4.3380    5.0710   -0.6300 C   0  0  0  0  0  0  0  0  0  0  0  0
    3.2310    5.9110   -0.0110 C   0  0  0  0  0  0  0  0  0  0  0  0
    6.9920    0.0370   -1.2590 O   0  0  0  0  0  0  0  0  0  0  0  0
    5.6210    0.1170   -3.1310 N   0  0  0  0  0  0  0  0  0  0  0  0
    6.4660   -0.6620   -4.0050 C   0  0  1  0  0  0  0  0  0  0  0  0
    5.6610   -1.3980   -5.0850 C   0  0  0  0  0  0  0  0  0  0  0  0
    4.6560   -2.4370   -4.5470 C   0  0  0  0  0  0  0  0  0  0  0  0
    5.3940   -3.4820   -3.7060 C   0  0  0  0  0  0  0  0  0  0  0  0
    3.5460   -1.7950   -3.7130 C   0  0  0  0  0  0  0  0  0  0  0  0
    7.4600    0.3030   -4.6530 C   0  0  0  0  0  0  0  0  0  0  0  0
    8.6830   -0.3220   -4.8890 N   0  0  0  0  0  0  0  0  0  0  0  0
    7.1500    1.4540   -4.9460 O   0  0  0  0  0  0  0  0  0  0  0  0
    9.8430    0.2420   -5.4710 C   0  0  0  0  0  0  0  0  0  0  0  0
   10.9730   -0.5440   -5.6270 C   0  0  0  0  0  0  0  0  0  0  0  0
   12.1160    0.0120   -6.2010 C   0  0  0  0  0  0  0  0  0  0  0  0
   12.1130    1.3460   -6.6100 C   0  0  0  0  0  0  0  0  0  0  0  0
   10.9670    2.1230   -6.4450 C   0  0  0  0  0  0  0  0  0  0  0  0
    9.8240    1.5670   -5.8710 C   0  0  0  0  0  0  0  0  0  0  0  0
   13.2770    1.9110   -7.1940 N   0  0  0  0  0  0  0  0  0  0  0  0
   14.2980    1.1950   -7.3330 O   0  0  0  0  0  0  0  0  0  0  0  0
   13.2540    3.1130   -7.5550 O   0  0  0  0  0  0  0  0  0  0  0  0
    2.5590   -1.7750    0.1830 H   0  0  0  0  0  0  0  0  0  0  0  0
    4.3080   -1.5710    2.6840 H   0  0  0  0  0  0  0  0  0  0  0  0
    3.9170    0.9810   -1.5440 H   0  0  0  0  0  0  0  0  0  0  0  0
    6.1470    2.9380   -0.7560 H   0  0  0  0  0  0  0  0  0  0  0  0
    5.2460    3.0190   -2.2680 H   0  0  0  0  0  0  0  0  0  0  0  0
    4.0200    3.2830    0.5360 H   0  0  0  0  0  0  0  0  0  0  0  0
    3.1220    3.3410   -0.9780 H   0  0  0  0  0  0  0  0  0  0  0  0
    4.4220    5.3330   -1.6920 H   0  0  0  0  0  0  0  0  0  0  0  0
    5.2960    5.3290   -0.1640 H   0  0  0  0  0  0  0  0  0  0  0  0
    3.4130    6.9730   -0.2050 H   0  0  0  0  0  0  0  0  0  0  0  0
    2.2560    5.6510   -0.4360 H   0  0  0  0  0  0  0  0  0  0  0  0
    3.1840    5.7760    1.0730 H   0  0  0  0  0  0  0  0  0  0  0  0
    4.7260    0.4300   -3.4940 H   0  0  0  0  0  0  0  0  0  0  0  0
    7.0170   -1.3640   -3.3710 H   0  0  0  0  0  0  0  0  0  0  0  0
    5.1150   -0.6570   -5.6850 H   0  0  0  0  0  0  0  0  0  0  0  0
    6.3520   -1.8940   -5.7790 H   0  0  0  0  0  0  0  0  0  0  0  0
    4.1930   -2.9600   -5.3920 H   0  0  0  0  0  0  0  0  0  0  0  0
    6.1680   -3.9820   -4.2980 H   0  0  0  0  0  0  0  0  0  0  0  0
    5.8770   -3.0240   -2.8350 H   0  0  0  0  0  0  0  0  0  0  0  0
    4.7030   -4.2500   -3.3450 H   0  0  0  0  0  0  0  0  0  0  0  0
    3.9600   -1.2030   -2.8900 H   0  0  0  0  0  0  0  0  0  0  0  0
    2.8930   -2.5620   -3.2820 H   0  0  0  0  0  0  0  0  0  0  0  0
    2.9160   -1.1410   -4.3230 H   0  0  0  0  0  0  0  0  0  0  0  0
    8.7660   -1.3000   -4.6180 H   0  0  0  0  0  0  0  0  0  0  0  0
   10.9860   -1.5840   -5.3120 H   0  0  0  0  0  0  0  0  0  0  0  0
   13.0030   -0.6050   -6.3240 H   0  0  0  0  0  0  0  0  0  0  0  0
   10.9520    3.1640   -6.7590 H   0  0  0  0  0  0  0  0  0  0  0  0
    8.9360    2.1830   -5.7480 H   0  0  0  0  0  0  0  0  0  0  0  0
  1  2  1  0
  1 31  1  0
  2  3  2  0
  2  4  1  0
  2  5  1  0
  4  6  1  0
  5 32  1  0
  6  7  1  0
  6  8  1  0
  6 33  1  6
  7 12  2  0
  7 13  1  0
  8  9  1  0
  8 34  1  0
  8 35  1  0
  9 10  1  0
  9 36  1  0
  9 37  1  0
 10 11  1  0
 10 38  1  0
 10 39  1  0
 11 40  1  0
 11 41  1  0
 11 42  1  0
 13 14  1  0
 13 43  1  0
 14 15  1  0
 14 19  1  0
 14 44  1  1
 15 16  1  0
 15 45  1  0
 15 46  1  0
 16 17  1  0
 16 18  1  0
 16 47  1  0
 17 48  1  0
 17 49  1  0
 17 50  1  0
 18 51  1  0
 18 52  1  0
 18 53  1  0
 19 20  1  0
 19 21  2  0
 20 22  1  0
 20 54  1  0
 22 23  2  0
 22 27  1  0
 23 24  1  0
 23 55  1  0
 24 25  2  0
 24 56  1  0
 25 26  1  0
 25 28  1  0
 26 27  2  0
 26 57  1  0
 27 58  1  0
 28 29  1  0
 28 30  2  0
M  CHG  2  28   1  29  -1
M  END
>  <NetFormalCharge>  (1) 
0

$$$$
