MLP
     RDKit          3D

 15 15  0  0  0  0  0  0  0  0999 V2000
   -1.9070   -0.8220    0.6840 C   0  0  0  0  0  0  0  0  0  0  0  0
   -1.8850   -0.6780   -0.8390 C   0  0  0  0  0  0  0  0  0  0  0  0
   -1.0150    0.2340    0.0290 C   0  0  0  0  0  0  0  0  0  0  0  0
   -1.4230    1.6400    0.1550 N   0  0  0  0  0  0  0  0  0  0  0  0
    0.7830   -0.0650    0.0270 P   0  0  2  0  0  0  0  0  0  0  0  0
    1.4910    0.9240   -1.0270 O   0  0  0  0  0  0  0  0  0  0  0  0
    1.0610   -1.5310   -0.3760 O   0  0  0  0  0  0  0  0  0  0  0  0
    1.3500    0.1970    1.4400 O   0  0  0  0  0  0  0  0  0  0  0  0
   -1.4180   -1.6960    1.1150 H   0  0  0  0  0  0  0  0  0  0  0  0
   -2.7960   -0.4740    1.2100 H   0  0  0  0  0  0  0  0  0  0  0  0
   -2.7590   -0.2360   -1.3150 H   0  0  0  0  0  0  0  0  0  0  0  0
   -1.3810   -1.4580   -1.4100 H   0  0  0  0  0  0  0  0  0  0  0  0
   -0.7290    2.1880   -0.3300 H   0  0  0  0  0  0  0  0  0  0  0  0
   -2.2840    1.7390   -0.3610 H   0  0  0  0  0  0  0  0  0  0  0  0
    2.4390    0.7340   -0.9960 H   0  0  0  0  0  0  0  0  0  0  0  0
  1  2  1  0
  1  3  1  0
  1  9  1  0
  1 10  1  0
  2  3  1  0
  2 11  1  0
  2 12  1  0
  3  4  1  0
  3  5  1  0
  4 13  1  0
  4 14  1  0
  5  6  1  0
  5  7  1  6
  5  8  2  0
  6 15  1  0
M  CHG  1   7  -1
M  END
>  <NetFormalCharge>  (1) 
-1

$$$$
