MLQ
     RDKit          3D

 54 56  0  0  1  0  0  0  0  0999 V2000
   -1.7510    0.4150   -0.4450 N   0  0  0  0  0  0  0  0  0  0  0  0
    4.5430   -0.8620   -1.4350 C   0  0  0  0  0  0  0  0  0  0  0  0
   -3.6930   -3.0030   -0.9620 O   0  0  0  0  0  0  0  0  0  0  0  0
    2.0850    1.9500   -0.2280 C   0  0  0  0  0  0  0  0  0  0  0  0
    1.5560    1.7070   -1.4930 C   0  0  0  0  0  0  0  0  0  0  0  0
    0.2900    1.1980   -1.6330 C   0  0  0  0  0  0  0  0  0  0  0  0
    5.4360    1.0650    1.9470 Cl  0  0  0  0  0  0  0  0  0  0  0  0
    5.1390   -0.1900    0.7850 C   0  0  0  0  0  0  0  0  0  0  0  0
    5.2630   -1.5180    1.1540 C   0  0  0  0  0  0  0  0  0  0  0  0
    5.0310   -2.5170    0.2270 C   0  0  0  0  0  0  0  0  0  0  0  0
    5.1860   -4.1830    0.6890 Cl  0  0  0  0  0  0  0  0  0  0  0  0
    4.7790    0.1370   -0.5100 C   0  0  0  0  0  0  0  0  0  0  0  0
    4.6660   -2.1890   -1.0670 C   0  0  0  0  0  0  0  0  0  0  0  0
    4.6220    1.8280   -0.9800 S   0  0  0  0  0  0  0  0  0  0  0  0
    5.8060    2.4790   -0.5380 O   0  0  0  0  0  0  0  0  0  0  0  0
    4.1940    1.8300   -2.3350 O   0  0  0  0  0  0  0  0  0  0  0  0
    3.3780    2.4690   -0.0960 N   0  0  0  0  0  0  0  0  0  0  0  0
    1.3290    1.6760    0.8980 C   0  0  0  0  0  0  0  0  0  0  0  0
    0.0420    1.1600    0.7680 C   0  0  0  0  0  0  0  0  0  0  0  0
   -0.4980    0.9130   -0.4980 C   0  0  0  0  0  0  0  0  0  0  0  0
   -1.1550    0.7130    1.9810 S   0  0  0  0  0  0  0  0  0  0  0  0
   -2.2780    0.2340    0.7170 C   0  0  0  0  0  0  0  0  0  0  0  0
   -3.8970   -0.4040    0.9990 S   0  0  0  0  0  0  0  0  0  0  0  0
   -4.4350   -0.6620   -0.7100 C   0  0  1  0  0  0  0  0  0  0  0  0
   -3.5790   -1.7240   -1.3510 C   0  0  0  0  0  0  0  0  0  0  0  0
   -2.7900   -1.4230   -2.2160 O   0  0  0  0  0  0  0  0  0  0  0  0
   -5.8980   -1.1100   -0.7220 C   0  0  0  0  0  0  0  0  0  0  0  0
   -6.7810    0.0190   -0.1860 C   0  0  0  0  0  0  0  0  0  0  0  0
   -8.2440   -0.4290   -0.1980 C   0  0  0  0  0  0  0  0  0  0  0  0
   -9.1270    0.6990    0.3390 C   0  0  0  0  0  0  0  0  0  0  0  0
  -10.5900    0.2520    0.3270 C   0  0  0  0  0  0  0  0  0  0  0  0
  -11.4730    1.3800    0.8630 C   0  0  0  0  0  0  0  0  0  0  0  0
    4.2570   -0.6070   -2.4450 H   0  0  0  0  0  0  0  0  0  0  0  0
   -3.1240   -3.6490   -1.4030 H   0  0  0  0  0  0  0  0  0  0  0  0
    2.1480    1.9210   -2.3710 H   0  0  0  0  0  0  0  0  0  0  0  0
   -0.1080    1.0150   -2.6200 H   0  0  0  0  0  0  0  0  0  0  0  0
    5.5440   -1.7730    2.1650 H   0  0  0  0  0  0  0  0  0  0  0  0
    4.4770   -2.9690   -1.7890 H   0  0  0  0  0  0  0  0  0  0  0  0
    3.5450    3.2050    0.5140 H   0  0  0  0  0  0  0  0  0  0  0  0
    1.7370    1.8640    1.8800 H   0  0  0  0  0  0  0  0  0  0  0  0
   -4.3350    0.2700   -1.2670 H   0  0  0  0  0  0  0  0  0  0  0  0
   -6.1960   -1.3500   -1.7430 H   0  0  0  0  0  0  0  0  0  0  0  0
   -6.0130   -1.9920   -0.0930 H   0  0  0  0  0  0  0  0  0  0  0  0
   -6.4830    0.2590    0.8350 H   0  0  0  0  0  0  0  0  0  0  0  0
   -6.6660    0.9010   -0.8160 H   0  0  0  0  0  0  0  0  0  0  0  0
   -8.5420   -0.6700   -1.2180 H   0  0  0  0  0  0  0  0  0  0  0  0
   -8.3590   -1.3110    0.4320 H   0  0  0  0  0  0  0  0  0  0  0  0
   -8.8290    0.9400    1.3590 H   0  0  0  0  0  0  0  0  0  0  0  0
   -9.0120    1.5820   -0.2910 H   0  0  0  0  0  0  0  0  0  0  0  0
  -10.8880    0.0110   -0.6940 H   0  0  0  0  0  0  0  0  0  0  0  0
  -10.7050   -0.6310    0.9560 H   0  0  0  0  0  0  0  0  0  0  0  0
  -11.1750    1.6210    1.8840 H   0  0  0  0  0  0  0  0  0  0  0  0
  -11.3580    2.2620    0.2340 H   0  0  0  0  0  0  0  0  0  0  0  0
  -12.5150    1.0610    0.8550 H   0  0  0  0  0  0  0  0  0  0  0  0
  1 22  2  0
  2 13  2  0
  2 33  1  0
  3 34  1  0
  4 18  1  0
  5  4  2  0
  5  6  1  0
  5 35  1  0
  6 20  2  0
  6 36  1  0
  7  8  1  0
  8  9  1  0
  9 10  2  0
  9 37  1  0
 10 13  1  0
 10 11  1  0
 12  8  2  0
 12  2  1  0
 13 38  1  0
 14 17  1  0
 14 16  2  0
 14 12  1  0
 15 14  2  0
 17  4  1  0
 17 39  1  0
 18 19  2  0
 18 40  1  0
 19 21  1  0
 20 19  1  0
 20  1  1  0
 21 22  1  0
 22 23  1  0
 23 24  1  0
 24 25  1  0
 24 41  1  6
 25 26  2  0
 25  3  1  0
 27 24  1  0
 27 28  1  0
 27 42  1  0
 27 43  1  0
 28 29  1  0
 28 44  1  0
 28 45  1  0
 29 30  1  0
 29 46  1  0
 29 47  1  0
 30 31  1  0
 30 48  1  0
 30 49  1  0
 31 32  1  0
 31 50  1  0
 31 51  1  0
 32 52  1  0
 32 53  1  0
 32 54  1  0
M  END
>  <NetFormalCharge>  (1) 
0

$$$$
