MLS
     RDKit          3D

 40 42  0  0  0  0  0  0  0  0999 V2000
   -2.1710   -0.7910    0.4270 C   0  0  0  0  0  0  0  0  0  0  0  0
   -3.2280   -0.7710   -0.4290 C   0  0  0  0  0  0  0  0  0  0  0  0
   -4.1160    0.3190   -0.4120 C   0  0  0  0  0  0  0  0  0  0  0  0
   -3.8940    1.3820    0.4990 C   0  0  0  0  0  0  0  0  0  0  0  0
   -4.7810    2.4710    0.5160 C   0  0  0  0  0  0  0  0  0  0  0  0
   -5.8390    2.4910   -0.3400 C   0  0  0  0  0  0  0  0  0  0  0  0
   -6.0580    1.4460   -1.2350 C   0  0  0  0  0  0  0  0  0  0  0  0
    6.8070    1.2810    0.0360 C   0  0  0  0  0  0  0  0  0  0  0  0
    5.3060    1.4110   -0.0080 C   0  0  0  0  0  0  0  0  0  0  0  0
    4.5210    0.2880   -0.2040 C   0  0  0  0  0  0  0  0  0  0  0  0
    5.0980   -0.9240   -0.3550 F   0  0  0  0  0  0  0  0  0  0  0  0
    3.1290    0.4120   -0.2430 C   0  0  0  0  0  0  0  0  0  0  0  0
    2.5430    1.6700   -0.0850 C   0  0  0  0  0  0  0  0  0  0  0  0
    3.3380    2.7790    0.1090 C   0  0  0  0  0  0  0  0  0  0  0  0
    4.7150    2.6500    0.1530 C   0  0  0  0  0  0  0  0  0  0  0  0
    2.2830   -0.7800   -0.4520 C   0  0  0  0  0  0  0  0  0  0  0  0
    2.7970   -1.8730   -0.5900 O   0  0  0  0  0  0  0  0  0  0  0  0
    0.9420   -0.6570   -0.4900 N   0  0  0  0  0  0  0  0  0  0  0  0
    0.1400   -1.7880   -0.6880 N   0  0  0  0  0  0  0  0  0  0  0  0
   -1.0560   -2.1550    0.3980 S   0  0  0  0  0  0  0  0  0  0  0  0
   -0.4390   -2.1970    1.6770 O   0  0  0  0  0  0  0  0  0  0  0  0
   -1.7760   -3.2490   -0.1540 O   0  0  0  0  0  0  0  0  0  0  0  0
   -5.2190    0.3750   -1.2800 C   0  0  0  0  0  0  0  0  0  0  0  0
   -2.7900    1.3260    1.3680 C   0  0  0  0  0  0  0  0  0  0  0  0
   -1.9520    0.2550    1.3230 C   0  0  0  0  0  0  0  0  0  0  0  0
   -3.3850   -1.5870   -1.1180 H   0  0  0  0  0  0  0  0  0  0  0  0
   -4.6250    3.2880    1.2050 H   0  0  0  0  0  0  0  0  0  0  0  0
   -6.5200    3.3300   -0.3240 H   0  0  0  0  0  0  0  0  0  0  0  0
   -6.9050    1.4870   -1.9030 H   0  0  0  0  0  0  0  0  0  0  0  0
    7.2110    1.3970   -0.9700 H   0  0  0  0  0  0  0  0  0  0  0  0
    7.2190    2.0540    0.6850 H   0  0  0  0  0  0  0  0  0  0  0  0
    7.0750    0.2990    0.4240 H   0  0  0  0  0  0  0  0  0  0  0  0
    1.4680    1.7740   -0.1190 H   0  0  0  0  0  0  0  0  0  0  0  0
    2.8840    3.7520    0.2310 H   0  0  0  0  0  0  0  0  0  0  0  0
    5.3320    3.5230    0.3050 H   0  0  0  0  0  0  0  0  0  0  0  0
    0.5320    0.2150   -0.3800 H   0  0  0  0  0  0  0  0  0  0  0  0
    0.2850   -2.3560   -1.4600 H   0  0  0  0  0  0  0  0  0  0  0  0
   -5.4000   -0.4270   -1.9800 H   0  0  0  0  0  0  0  0  0  0  0  0
   -2.6090    2.1280    2.0670 H   0  0  0  0  0  0  0  0  0  0  0  0
   -1.1050    0.2130    1.9920 H   0  0  0  0  0  0  0  0  0  0  0  0
  1  2  2  0
  1 25  1  0
  2  3  1  0
  2 26  1  0
  3 23  2  0
  3  4  1  0
  4  5  2  0
  5  6  1  0
  5 27  1  0
  6 28  1  0
  7  6  2  0
  7 29  1  0
  8 30  1  0
  8 31  1  0
  8 32  1  0
  9  8  1  0
 10  9  2  0
 10 11  1  0
 12 10  1  0
 13 14  1  0
 13 12  2  0
 13 33  1  0
 14 15  2  0
 14 34  1  0
 15  9  1  0
 15 35  1  0
 16 12  1  0
 16 18  1  0
 17 16  2  0
 18 36  1  0
 19 18  1  0
 19 20  1  0
 19 37  1  0
 20 21  2  0
 20  1  1  0
 22 20  2  0
 23  7  1  0
 23 38  1  0
 24  4  1  0
 24 39  1  0
 25 24  2  0
 25 40  1  0
M  END
>  <NetFormalCharge>  (1) 
0

$$$$
