MLV
     RDKit          3D

 41 43  0  0  0  0  0  0  0  0999 V2000
    0.0200   -0.7710    0.5130 C   0  0  0  0  0  0  0  0  0  0  0  0
   -1.0400    0.2380    0.3120 C   0  0  0  0  0  0  0  0  0  0  0  0
   -3.3680    0.8020    0.0260 C   0  0  0  0  0  0  0  0  0  0  0  0
   -2.3760   -0.1590    0.2160 C   0  0  0  0  0  0  0  0  0  0  0  0
   -0.7100    1.5930    0.2220 C   0  0  0  0  0  0  0  0  0  0  0  0
   -1.7000    2.5350    0.0350 C   0  0  0  0  0  0  0  0  0  0  0  0
   -3.0230    2.1480   -0.0650 C   0  0  0  0  0  0  0  0  0  0  0  0
   -4.7900    0.3900   -0.0820 C   0  0  0  0  0  0  0  0  0  0  0  0
   -7.4420   -0.3790   -0.2850 C   0  0  0  0  0  0  0  0  0  0  0  0
   -7.0830    0.6350    0.5840 C   0  0  0  0  0  0  0  0  0  0  0  0
   -5.7620    1.0230    0.6890 C   0  0  0  0  0  0  0  0  0  0  0  0
   -6.4820   -1.0030   -1.0620 C   0  0  0  0  0  0  0  0  0  0  0  0
   -5.1580   -0.6280   -0.9610 C   0  0  0  0  0  0  0  0  0  0  0  0
   -2.7040   -1.4660    0.3060 F   0  0  0  0  0  0  0  0  0  0  0  0
   -0.2690   -1.9490    0.5850 O   0  0  0  0  0  0  0  0  0  0  0  0
    1.3080   -0.3850    0.6110 N   0  0  0  0  0  0  0  0  0  0  0  0
    2.3130   -1.3420    0.8010 N   0  0  0  0  0  0  0  0  0  0  0  0
    3.5940   -1.4170   -0.2450 S   0  0  0  0  0  0  0  0  0  0  0  0
    4.4990   -2.3690    0.2960 O   0  0  0  0  0  0  0  0  0  0  0  0
    3.0410   -1.5250   -1.5500 O   0  0  0  0  0  0  0  0  0  0  0  0
    4.4130    0.1420   -0.1800 C   0  0  0  0  0  0  0  0  0  0  0  0
    4.0320    1.1590   -1.0350 C   0  0  0  0  0  0  0  0  0  0  0  0
    4.6740    2.3820   -0.9840 C   0  0  0  0  0  0  0  0  0  0  0  0
    5.6980    2.5880   -0.0780 C   0  0  0  0  0  0  0  0  0  0  0  0
    6.0790    1.5700    0.7770 C   0  0  0  0  0  0  0  0  0  0  0  0
    5.4330    0.3490    0.7290 C   0  0  0  0  0  0  0  0  0  0  0  0
    0.3210    1.9030    0.3000 H   0  0  0  0  0  0  0  0  0  0  0  0
   -1.4400    3.5810   -0.0330 H   0  0  0  0  0  0  0  0  0  0  0  0
   -3.7920    2.8920   -0.2120 H   0  0  0  0  0  0  0  0  0  0  0  0
   -8.4760   -0.6790   -0.3640 H   0  0  0  0  0  0  0  0  0  0  0  0
   -7.8360    1.1190    1.1880 H   0  0  0  0  0  0  0  0  0  0  0  0
   -5.4830    1.8140    1.3680 H   0  0  0  0  0  0  0  0  0  0  0  0
   -6.7680   -1.7950   -1.7390 H   0  0  0  0  0  0  0  0  0  0  0  0
   -4.4080   -1.1210   -1.5610 H   0  0  0  0  0  0  0  0  0  0  0  0
    1.5380    0.5550    0.5490 H   0  0  0  0  0  0  0  0  0  0  0  0
    2.2590   -1.9600    1.5470 H   0  0  0  0  0  0  0  0  0  0  0  0
    3.2320    0.9990   -1.7430 H   0  0  0  0  0  0  0  0  0  0  0  0
    4.3770    3.1770   -1.6520 H   0  0  0  0  0  0  0  0  0  0  0  0
    6.2000    3.5430   -0.0380 H   0  0  0  0  0  0  0  0  0  0  0  0
    6.8790    1.7310    1.4850 H   0  0  0  0  0  0  0  0  0  0  0  0
    5.7280   -0.4440    1.4000 H   0  0  0  0  0  0  0  0  0  0  0  0
  1  2  1  0
  1 16  1  0
  2  5  2  0
  3  7  1  0
  4  3  2  0
  4  2  1  0
  5  6  1  0
  5 27  1  0
  6 28  1  0
  7  6  2  0
  7 29  1  0
  8 11  2  0
  8  3  1  0
  9 10  2  0
  9 30  1  0
 10 11  1  0
 10 31  1  0
 11 32  1  0
 12  9  1  0
 12 13  2  0
 12 33  1  0
 13  8  1  0
 13 34  1  0
 14  4  1  0
 15  1  2  0
 16 35  1  0
 17 16  1  0
 17 18  1  0
 17 36  1  0
 18 20  2  0
 18 21  1  0
 19 18  2  0
 21 26  1  0
 21 22  2  0
 22 23  1  0
 22 37  1  0
 23 24  2  0
 23 38  1  0
 24 39  1  0
 25 24  1  0
 25 40  1  0
 26 25  2  0
 26 41  1  0
M  END
>  <NetFormalCharge>  (1) 
0

$$$$
