MLW
     RDKit          3D

 24 26  0  0  0  0  0  0  0  0999 V2000
    1.1020    0.3010    0.0010 C   0  0  0  0  0  0  0  0  0  0  0  0
    2.2880    1.0740    0.0000 C   0  0  0  0  0  0  0  0  0  0  0  0
    3.6220    0.6100    0.0000 C   0  0  0  0  0  0  0  0  0  0  0  0
   -0.2590    0.8540    0.0010 C   0  0  0  0  0  0  0  0  0  0  0  0
   -0.7730    2.1520    0.0010 C   0  0  0  0  0  0  0  0  0  0  0  0
   -2.1350    2.3470    0.0000 C   0  0  0  0  0  0  0  0  0  0  0  0
   -2.9990    1.2610    0.0000 C   0  0  0  0  0  0  0  0  0  0  0  0
   -2.5070   -0.0270    0.0000 C   0  0  0  0  0  0  0  0  0  0  0  0
   -1.1310   -0.2470    0.0000 C   0  0  0  0  0  0  0  0  0  0  0  0
    2.1400    2.2870   -0.0010 O   0  0  0  0  0  0  0  0  0  0  0  0
    4.0680   -0.6780    0.0010 C   0  0  0  0  0  0  0  0  0  0  0  0
    3.3380   -1.8680    0.0010 C   0  0  0  0  0  0  0  0  0  0  0  0
    1.9880   -2.0580    0.0010 C   0  0  0  0  0  0  0  0  0  0  0  0
    0.9660   -1.0930   -0.0050 C   0  0  0  0  0  0  0  0  0  0  0  0
   -0.3720   -1.4010    0.0000 N   0  0  0  0  0  0  0  0  0  0  0  0
   -3.6010   -1.3740   -0.0000 Cl  0  0  0  0  0  0  0  0  0  0  0  0
    4.3860    1.3730   -0.0010 H   0  0  0  0  0  0  0  0  0  0  0  0
   -0.1040    2.9990    0.0010 H   0  0  0  0  0  0  0  0  0  0  0  0
   -2.5340    3.3510    0.0010 H   0  0  0  0  0  0  0  0  0  0  0  0
   -4.0660    1.4260    0.0000 H   0  0  0  0  0  0  0  0  0  0  0  0
    5.1420   -0.7940    0.0010 H   0  0  0  0  0  0  0  0  0  0  0  0
    3.9300   -2.7720    0.0010 H   0  0  0  0  0  0  0  0  0  0  0  0
    1.6600   -3.0870    0.0000 H   0  0  0  0  0  0  0  0  0  0  0  0
   -0.7330   -2.3020    0.0080 H   0  0  0  0  0  0  0  0  0  0  0  0
  1  4  1  0
  2  1  1  0
  2 10  2  0
  3  2  1  0
  3 17  1  0
  4  5  2  0
  5  6  1  0
  5 18  1  0
  6 19  1  0
  7  6  2  0
  7 20  1  0
  8  7  1  0
  9  4  1  0
  9  8  2  0
 11  3  2  0
 11 21  1  0
 12 11  1  0
 12 13  2  0
 12 22  1  0
 13 14  1  0
 13 23  1  0
 14 15  1  0
 14  1  2  0
 15  9  1  0
 15 24  1  0
 16  8  1  0
M  END
>  <NetFormalCharge>  (1) 
0

$$$$
