MLX
     RDKit          3D

 37 37  0  0  0  0  0  0  0  0999 V2000
    2.7530    2.6070   -0.5320 C   0  0  0  0  0  0  0  0  0  0  0  0
    1.5080    2.3450    0.2780 C   0  0  0  0  0  0  0  0  0  0  0  0
    0.7710    3.2620    0.5700 O   0  0  0  0  0  0  0  0  0  0  0  0
    1.2160    1.0910    0.6760 N   0  0  0  0  0  0  0  0  0  0  0  0
   -0.0490    0.8170    1.3630 C   0  0  0  0  0  0  0  0  0  0  0  0
   -1.1230    0.4660    0.3320 C   0  0  0  0  0  0  0  0  0  0  0  0
   -2.4440    0.1800    1.0500 C   0  0  0  0  0  0  0  0  0  0  0  0
   -3.4730   -0.1570    0.0630 N   0  0  0  0  0  0  0  0  0  0  0  0
   -4.7250   -0.4480    0.4670 C   0  0  0  0  0  0  0  0  0  0  0  0
   -5.0000   -0.4320    1.6480 O   0  0  0  0  0  0  0  0  0  0  0  0
   -5.7840   -0.7940   -0.5480 C   0  0  0  0  0  0  0  0  0  0  0  0
   -6.9910   -1.0560    0.1080 F   0  0  0  0  0  0  0  0  0  0  0  0
   -5.9540    0.2800   -1.4290 F   0  0  0  0  0  0  0  0  0  0  0  0
   -5.3880   -1.9280   -1.2670 F   0  0  0  0  0  0  0  0  0  0  0  0
    2.1200    0.0510    0.4340 C   0  0  0  0  0  0  0  0  0  0  0  0
    2.7670   -0.5700    1.4950 C   0  0  0  0  0  0  0  0  0  0  0  0
    3.6590   -1.5960    1.2530 C   0  0  0  0  0  0  0  0  0  0  0  0
    3.9080   -2.0060   -0.0440 C   0  0  0  0  0  0  0  0  0  0  0  0
    4.8690   -3.1020   -0.3010 N   0  0  0  0  0  0  0  0  0  0  0  0
    5.0930   -3.4610   -1.4430 O   0  0  0  0  0  0  0  0  0  0  0  0
    5.4360   -3.6450    0.6310 O   0  0  0  0  0  0  0  0  0  0  0  0
    3.2660   -1.3900   -1.1030 C   0  0  0  0  0  0  0  0  0  0  0  0
    2.3680   -0.3670   -0.8670 C   0  0  0  0  0  0  0  0  0  0  0  0
    3.6210    2.2180    0.0000 H   0  0  0  0  0  0  0  0  0  0  0  0
    2.6680    2.1130   -1.4990 H   0  0  0  0  0  0  0  0  0  0  0  0
    0.0840   -0.0200    2.0490 H   0  0  0  0  0  0  0  0  0  0  0  0
   -0.3570    1.7000    1.9230 H   0  0  0  0  0  0  0  0  0  0  0  0
   -1.2560    1.3030   -0.3540 H   0  0  0  0  0  0  0  0  0  0  0  0
   -0.8150   -0.4170   -0.2270 H   0  0  0  0  0  0  0  0  0  0  0  0
   -2.3110   -0.6570    1.7350 H   0  0  0  0  0  0  0  0  0  0  0  0
   -2.7520    1.0630    1.6090 H   0  0  0  0  0  0  0  0  0  0  0  0
   -3.2530   -0.1700   -0.8820 H   0  0  0  0  0  0  0  0  0  0  0  0
    2.5730   -0.2500    2.5080 H   0  0  0  0  0  0  0  0  0  0  0  0
    4.1630   -2.0780    2.0770 H   0  0  0  0  0  0  0  0  0  0  0  0
    3.4630   -1.7120   -2.1150 H   0  0  0  0  0  0  0  0  0  0  0  0
    1.8660    0.1140   -1.6940 H   0  0  0  0  0  0  0  0  0  0  0  0
    2.9450    4.3830   -0.7790 Cl  0  0  0  0  0  0  0  0  0  0  0  0
  1  2  1  0
  1 24  1  0
  1 25  1  0
  1 37  1  0
  2  4  1  0
  2  3  2  0
  4  5  1  0
  5  6  1  0
  5 26  1  0
  5 27  1  0
  6  7  1  0
  6 28  1  0
  6 29  1  0
  7  8  1  0
  7 30  1  0
  7 31  1  0
  8 32  1  0
  9  8  1  0
  9 11  1  0
 10  9  2  0
 11 12  1  0
 13 11  1  0
 14 11  1  0
 15  4  1  0
 16 15  2  0
 16 33  1  0
 17 16  1  0
 17 34  1  0
 18 22  1  0
 18 17  2  0
 19 18  1  0
 20 19  2  0
 21 19  1  0
 22 23  2  0
 22 35  1  0
 23 15  1  0
 23 36  1  0
M  CHG  2  19   1  21  -1
M  END
>  <NetFormalCharge>  (1) 
0

$$$$
