
     RDKit          3D

  4  3  0  0  0  0  0  0  0  0999 V2000
   -0.8340   -0.2715    0.5725 N   0  0  0  0  0  0  0  0  0  0  0  0
    0.4036   -0.0940    0.3517 C   0  0  0  0  0  0  0  0  0  0  0  0
    1.9742    0.1314    0.0712 S   0  0  0  0  0  0  0  0  0  0  0  0
   -1.5438    0.2340   -0.0013 H   0  0  0  0  0  0  0  0  0  0  0  0
  1  2  2  0
  2  3  2  0
  1  4  1  0
M  END
>  <LigandName>  (1) 
NCSâ» (N-bound)

>  <SMILES>  (1) 
N=C=S

>  <FieldStrength>  (1) 
moderate

>  <Delta_cm-1>  (1) 
20000

>  <DonorAtom>  (1) 
N

>  <Denticity>  (1) 
0

>  <DenticityDescription>  (1) 
non-dentate

>  <MolecularWeight>  (1) 
59.09

>  <HDonors>  (1) 
1

>  <HAcceptors>  (1) 
2

>  <LogP>  (1) 
0.67

>  <NumAtoms>  (1) 
4

>  <NetFormalCharge>  (1) 
0

$$$$
