NO3
     RDKit          2D

  4  3  0  0  0  0  0  0  0  0999 V2000
   -0.0000    0.0000   -0.0010 N   0  0  0  0  0  0  0  0  0  0  0  0
   -1.2180    0.0170    0.0000 O   0  0  0  0  0  0  0  0  0  0  0  0
    0.6230    1.0460    0.0000 O   0  0  0  0  0  0  0  0  0  0  0  0
    0.5950   -1.0630    0.0000 O   0  0  0  0  0  0  0  0  0  0  0  0
  1  2  2  0
  1  3  1  0
  1  4  1  0
M  CHG  3   1   1   3  -1   4  -1
M  END
>  <LigandName>  (1) 
NO3

>  <Denticity>  (1) 
2

>  <DenticityDescription>  (1) 
bidentate

>  <Delta_cm-1>  (1) 
20000

>  <DeltaConfidence>  (1) 
estimated

>  <SMILES>  (1) 
O=[N+]([O-])[O-]

>  <NetFormalCharge>  (1) 
-1

$$$$
