
     RDKit          3D

  4  3  0  0  0  0  0  0  0  0999 V2000
   -1.1292   -0.7553   -0.0083 O   0  0  0  0  0  0  0  0  0  0  0  0
   -0.0027    0.0317    0.0004 N   0  0  0  0  0  0  0  0  0  0  0  0
   -0.1102    1.2739    0.0146 O   0  0  0  0  0  0  0  0  0  0  0  0
    1.2421   -0.5503   -0.0066 O   0  0  0  0  0  1  0  0  0  0  0  0
  1  2  1  0
  2  3  2  0
  2  4  1  0
M  CHG  3   1  -1   2   1   4  -1
M  END
>  <LigandName>  (1) 
NO₃⁻

>  <SMILES>  (1) 
O=N(=O)[O-]

>  <FieldStrength>  (1) 
weak

>  <Delta_cm-1>  (1) 
15000

>  <DonorAtom>  (1) 
O

>  <Denticity>  (1) 
1

>  <DenticityDescription>  (1) 
monodentate

>  <MolecularWeight>  (1) 
62.0

>  <HDonors>  (1) 
0

>  <HAcceptors>  (1) 
3

>  <LogP>  (1) 
-0.24

>  <NumAtoms>  (1) 
4

>  <NetFormalCharge>  (1) 
-1

$$$$
