
     RDKit          3D

 22 24  0  0  0  0  0  0  0  0999 V2000
   -3.4055   -0.8905    0.1775 C   0  0  0  0  0  0  0  0  0  0  0  0
   -2.8551    0.2973   -0.3074 C   0  0  0  0  0  0  0  0  0  0  0  0
   -1.4654    0.4763   -0.2993 C   0  0  0  0  0  0  0  0  0  0  0  0
   -0.8850    1.6590   -0.7802 C   0  0  0  0  0  0  0  0  0  0  0  0
    0.5035    1.8187   -0.7636 C   0  0  0  0  0  0  0  0  0  0  0  0
    1.3256    0.7973   -0.2661 C   0  0  0  0  0  0  0  0  0  0  0  0
    2.7195    0.9384   -0.2411 C   0  0  0  0  0  0  0  0  0  0  0  0
    3.5136   -0.0949    0.2599 C   0  0  0  0  0  0  0  0  0  0  0  0
    2.9073   -1.2610    0.7319 C   0  0  0  0  0  0  0  0  0  0  0  0
    1.5539   -1.3876    0.7031 N   0  0  0  0  0  0  0  0  0  0  0  0
    0.7498   -0.3992    0.2211 C   0  0  0  0  0  0  0  0  0  0  0  0
   -0.6446   -0.5595    0.2045 C   0  0  0  0  0  0  0  0  0  0  0  0
   -1.2145   -1.7059    0.6701 N   0  0  0  0  0  0  0  0  0  0  0  0
   -2.5616   -1.8899    0.6668 C   0  0  0  0  0  0  0  0  0  0  0  0
   -4.4780   -1.0359    0.1744 H   0  0  0  0  0  0  0  0  0  0  0  0
   -3.5114    1.0715   -0.6866 H   0  0  0  0  0  0  0  0  0  0  0  0
   -1.5046    2.4587   -1.1682 H   0  0  0  0  0  0  0  0  0  0  0  0
    0.9344    2.7392   -1.1392 H   0  0  0  0  0  0  0  0  0  0  0  0
    3.1917    1.8423   -0.6068 H   0  0  0  0  0  0  0  0  0  0  0  0
    4.5908    0.0069    0.2824 H   0  0  0  0  0  0  0  0  0  0  0  0
    3.5139   -2.0673    1.1220 H   0  0  0  0  0  0  0  0  0  0  0  0
   -2.9784   -2.8138    1.0448 H   0  0  0  0  0  0  0  0  0  0  0  0
  1  2  2  0
  2  3  1  0
  3  4  2  0
  4  5  1  0
  5  6  2  0
  6  7  1  0
  7  8  2  0
  8  9  1  0
  9 10  2  0
 10 11  1  0
 11 12  2  0
 12 13  1  0
 13 14  2  0
 14  1  1  0
 12  3  1  0
 11  6  1  0
  1 15  1  0
  2 16  1  0
  4 17  1  0
  5 18  1  0
  7 19  1  0
  8 20  1  0
  9 21  1  0
 14 22  1  0
M  END
>  <LigandName>  (1) 
phen

>  <SMILES>  (1) 
c1cc2ccc3cccnc3c2nc1

>  <FieldStrength>  (1) 
strong

>  <Delta_cm-1>  (1) 
27000

>  <DonorAtom>  (1) 
N,N

>  <Denticity>  (1) 
2

>  <DenticityDescription>  (1) 
bidentate

>  <MolecularWeight>  (1) 
180.21

>  <HDonors>  (1) 
0

>  <HAcceptors>  (1) 
2

>  <LogP>  (1) 
2.78

>  <NumAtoms>  (1) 
22

>  <NetFormalCharge>  (1) 
0

$$$$
