
     RDKit          3D

 26 28  0  0  0  0  0  0  0  0999 V2000
   -3.2781    1.4386   -0.3155 C   0  0  0  0  0  0  0  0  0  0  0  0
   -2.0494    1.9961   -0.6707 C   0  0  0  0  0  0  0  0  0  0  0  0
   -0.8715    1.2590   -0.5232 C   0  0  0  0  0  0  0  0  0  0  0  0
   -0.9088   -0.0516   -0.0018 C   0  0  0  0  0  0  0  0  0  0  0  0
   -2.1659   -0.6201    0.3292 C   0  0  0  0  0  0  0  0  0  0  0  0
   -3.3398    0.1344    0.1778 C   0  0  0  0  0  0  0  0  0  0  0  0
   -2.2323   -1.9392    0.7919 C   0  0  0  0  0  0  0  0  0  0  0  0
   -1.0613   -2.6828    0.9134 C   0  0  0  0  0  0  0  0  0  0  0  0
    0.1373   -2.1241    0.6076 N   0  0  0  0  0  0  0  0  0  0  0  0
    0.2579   -0.8398    0.1719 C   0  0  0  0  0  0  0  0  0  0  0  0
    1.6203   -0.3283   -0.0882 C   0  0  0  0  0  0  0  0  0  0  0  0
    2.1119    0.7983    0.5886 C   0  0  0  0  0  0  0  0  0  0  0  0
    3.4153    1.2395    0.3542 C   0  0  0  0  0  0  0  0  0  0  0  0
    4.2231    0.5393   -0.5436 C   0  0  0  0  0  0  0  0  0  0  0  0
    3.7415   -0.5642   -1.1751 N   0  0  0  0  0  0  0  0  0  0  0  0
    2.4750   -1.0129   -0.9646 C   0  0  0  0  0  0  0  0  0  0  0  0
   -4.1866    2.0150   -0.4335 H   0  0  0  0  0  0  0  0  0  0  0  0
   -2.0096    3.0022   -1.0681 H   0  0  0  0  0  0  0  0  0  0  0  0
    0.0563    1.7175   -0.8357 H   0  0  0  0  0  0  0  0  0  0  0  0
   -4.3047   -0.2872    0.4337 H   0  0  0  0  0  0  0  0  0  0  0  0
   -3.1821   -2.3950    1.0453 H   0  0  0  0  0  0  0  0  0  0  0  0
   -1.1034   -3.7069    1.2593 H   0  0  0  0  0  0  0  0  0  0  0  0
    1.4893    1.3289    1.2987 H   0  0  0  0  0  0  0  0  0  0  0  0
    3.7979    2.1119    0.8680 H   0  0  0  0  0  0  0  0  0  0  0  0
    5.2357    0.8691   -0.7337 H   0  0  0  0  0  0  0  0  0  0  0  0
    2.1321   -1.8977   -1.4857 H   0  0  0  0  0  0  0  0  0  0  0  0
  1  2  2  0
  2  3  1  0
  3  4  2  0
  4  5  1  0
  5  6  2  0
  5  7  1  0
  7  8  2  0
  8  9  1  0
  9 10  2  0
 10 11  1  0
 11 12  2  0
 12 13  1  0
 13 14  2  0
 14 15  1  0
 15 16  2  0
  6  1  1  0
 10  4  1  0
 16 11  1  0
  1 17  1  0
  2 18  1  0
  3 19  1  0
  6 20  1  0
  7 21  1  0
  8 22  1  0
 12 23  1  0
 13 24  1  0
 14 25  1  0
 16 26  1  0
M  END
>  <LigandName>  (1) 
phen

>  <SMILES>  (1) 
c1ccc2c(c1)ccnc2c3cccnc3

>  <FieldStrength>  (1) 
strong

>  <Delta_cm-1>  (1) 
27000

>  <DonorAtom>  (1) 
N,N

>  <Denticity>  (1) 
2

>  <DenticityDescription>  (1) 
bidentate

>  <MolecularWeight>  (1) 
206.25

>  <HDonors>  (1) 
0

>  <HAcceptors>  (1) 
2

>  <LogP>  (1) 
3.3

>  <NumAtoms>  (1) 
26

>  <NetFormalCharge>  (1) 
0

$$$$
