
     RDKit          3D

 26 28  0  0  0  0  0  0  0  0999 V2000
   -3.2849    1.4294   -0.2856 C   0  0  0  0  0  0  0  0  0  0  0  0
   -2.0598    1.9956   -0.6394 C   0  0  0  0  0  0  0  0  0  0  0  0
   -0.8785    1.2615   -0.5052 C   0  0  0  0  0  0  0  0  0  0  0  0
   -0.9086   -0.0551    0.0013 C   0  0  0  0  0  0  0  0  0  0  0  0
   -2.1621   -0.6322    0.3309 C   0  0  0  0  0  0  0  0  0  0  0  0
   -3.3396    0.1194    0.1930 C   0  0  0  0  0  0  0  0  0  0  0  0
   -2.2215   -1.9568    0.7788 C   0  0  0  0  0  0  0  0  0  0  0  0
   -1.0472   -2.6972    0.8869 C   0  0  0  0  0  0  0  0  0  0  0  0
    0.1479   -2.1304    0.5826 N   0  0  0  0  0  0  0  0  0  0  0  0
    0.2618   -0.8407    0.1611 C   0  0  0  0  0  0  0  0  0  0  0  0
    1.6211   -0.3210   -0.0986 C   0  0  0  0  0  0  0  0  0  0  0  0
    2.1112    0.7998    0.5890 C   0  0  0  0  0  0  0  0  0  0  0  0
    3.4119    1.2487    0.3544 C   0  0  0  0  0  0  0  0  0  0  0  0
    4.2187    0.5619   -0.5547 C   0  0  0  0  0  0  0  0  0  0  0  0
    3.7388   -0.5362   -1.1967 N   0  0  0  0  0  0  0  0  0  0  0  0
    2.4749   -0.9922   -0.9862 C   0  0  0  0  0  0  0  0  0  0  0  0
   -4.1960    2.0036   -0.3932 H   0  0  0  0  0  0  0  0  0  0  0  0
   -2.0256    3.0063   -1.0254 H   0  0  0  0  0  0  0  0  0  0  0  0
    0.0462    1.7271   -0.8162 H   0  0  0  0  0  0  0  0  0  0  0  0
   -4.3018   -0.3088    0.4481 H   0  0  0  0  0  0  0  0  0  0  0  0
   -3.1685   -2.4192    1.0308 H   0  0  0  0  0  0  0  0  0  0  0  0
   -1.0839   -3.7253    1.2212 H   0  0  0  0  0  0  0  0  0  0  0  0
    1.4895    1.3197    1.3076 H   0  0  0  0  0  0  0  0  0  0  0  0
    3.7932    2.1167    0.8765 H   0  0  0  0  0  0  0  0  0  0  0  0
    5.2292    0.8979   -0.7452 H   0  0  0  0  0  0  0  0  0  0  0  0
    2.1333   -1.8724   -1.5160 H   0  0  0  0  0  0  0  0  0  0  0  0
  1  2  2  0
  2  3  1  0
  3  4  2  0
  4  5  1  0
  5  6  2  0
  5  7  1  0
  7  8  2  0
  8  9  1  0
  9 10  2  0
 10 11  1  0
 11 12  2  0
 12 13  1  0
 13 14  2  0
 14 15  1  0
 15 16  2  0
  6  1  1  0
 10  4  1  0
 16 11  1  0
  1 17  1  0
  2 18  1  0
  3 19  1  0
  6 20  1  0
  7 21  1  0
  8 22  1  0
 12 23  1  0
 13 24  1  0
 14 25  1  0
 16 26  1  0
M  END
>  <LigandName>  (1) 
phen

>  <SMILES>  (1) 
c1ccc2c(c1)ccnc2c3cccnc3

>  <FieldStrength>  (1) 
strong

>  <MolecularWeight>  (1) 
206.25

>  <HDonors>  (1) 
0

>  <HAcceptors>  (1) 
2

>  <LogP>  (1) 
3.3

>  <NumAtoms>  (1) 
26

>  <NetFormalCharge>  (1) 
0

$$$$
