PO4
     RDKit          3D

  5  4  0  0  0  0  0  0  0  0999 V2000
    0.0000    0.0000    0.0000 P   0  0  0  0  0  0  0  0  0  0  0  0
    0.0000   -1.2880   -0.9110 O   0  0  0  0  0  0  0  0  0  0  0  0
    0.0000    1.2880   -0.9110 O   0  0  0  0  0  0  0  0  0  0  0  0
   -1.2880    0.0000    0.9110 O   0  0  0  0  0  0  0  0  0  0  0  0
    1.2880    0.0000    0.9110 O   0  0  0  0  0  0  0  0  0  0  0  0
  1  2  2  0
  1  3  1  0
  1  4  1  0
  1  5  1  0
M  CHG  3   3  -1   4  -1   5  -1
M  END
>  <NetFormalCharge>  (1) 
-3

$$$$
