
     RDKit          3D

 34 36  0  0  0  0  0  0  0  0999 V2000
   -0.7603    4.1175   -1.0264 C   0  0  0  0  0  0  0  0  0  0  0  0
   -1.3684    3.9491    0.2213 C   0  0  0  0  0  0  0  0  0  0  0  0
   -1.1942    2.7564    0.9285 C   0  0  0  0  0  0  0  0  0  0  0  0
   -0.4071    1.7263    0.3959 C   0  0  0  0  0  0  0  0  0  0  0  0
    0.1909    1.8960   -0.8648 C   0  0  0  0  0  0  0  0  0  0  0  0
    0.0160    3.0898   -1.5705 C   0  0  0  0  0  0  0  0  0  0  0  0
   -0.2292    0.1606    1.3621 P   0  0  0  0  0  0  0  0  0  0  0  0
    1.4489   -0.4450    0.8780 C   0  0  0  0  0  0  0  0  0  0  0  0
    2.5507   -0.0811    1.6640 C   0  0  0  0  0  0  0  0  0  0  0  0
    3.8354   -0.5164    1.3208 C   0  0  0  0  0  0  0  0  0  0  0  0
    4.0254   -1.3119    0.1870 C   0  0  0  0  0  0  0  0  0  0  0  0
    2.9326   -1.6713   -0.6071 C   0  0  0  0  0  0  0  0  0  0  0  0
    1.6477   -1.2391   -0.2660 C   0  0  0  0  0  0  0  0  0  0  0  0
   -1.3660   -1.0546    0.5506 C   0  0  0  0  0  0  0  0  0  0  0  0
   -2.0591   -0.7565   -0.6353 C   0  0  0  0  0  0  0  0  0  0  0  0
   -2.8642   -1.7278   -1.2391 C   0  0  0  0  0  0  0  0  0  0  0  0
   -2.9880   -2.9957   -0.6627 C   0  0  0  0  0  0  0  0  0  0  0  0
   -2.3078   -3.2947    0.5199 C   0  0  0  0  0  0  0  0  0  0  0  0
   -1.4998   -2.3278    1.1238 C   0  0  0  0  0  0  0  0  0  0  0  0
   -0.8927    5.0433   -1.5702 H   0  0  0  0  0  0  0  0  0  0  0  0
   -1.9791    4.7400    0.6394 H   0  0  0  0  0  0  0  0  0  0  0  0
   -1.6778    2.6338    1.8904 H   0  0  0  0  0  0  0  0  0  0  0  0
    0.7853    1.1123   -1.3106 H   0  0  0  0  0  0  0  0  0  0  0  0
    0.4874    3.2165   -2.5391 H   0  0  0  0  0  0  0  0  0  0  0  0
    2.4114    0.5323    2.5446 H   0  0  0  0  0  0  0  0  0  0  0  0
    4.6872   -0.2378    1.9309 H   0  0  0  0  0  0  0  0  0  0  0  0
    5.0207   -1.6419   -0.0786 H   0  0  0  0  0  0  0  0  0  0  0  0
    3.0834   -2.2761   -1.4924 H   0  0  0  0  0  0  0  0  0  0  0  0
    0.8188   -1.5139   -0.9032 H   0  0  0  0  0  0  0  0  0  0  0  0
   -1.9775    0.2152   -1.1026 H   0  0  0  0  0  0  0  0  0  0  0  0
   -3.3899   -1.5012   -2.1570 H   0  0  0  0  0  0  0  0  0  0  0  0
   -3.6085   -3.7454   -1.1339 H   0  0  0  0  0  0  0  0  0  0  0  0
   -2.4031   -4.2762    0.9673 H   0  0  0  0  0  0  0  0  0  0  0  0
   -0.9692   -2.5745    2.0349 H   0  0  0  0  0  0  0  0  0  0  0  0
  1  2  2  0
  2  3  1  0
  3  4  2  0
  4  5  1  0
  5  6  2  0
  4  7  1  0
  7  8  1  0
  8  9  2  0
  9 10  1  0
 10 11  2  0
 11 12  1  0
 12 13  2  0
  7 14  1  0
 14 15  2  0
 15 16  1  0
 16 17  2  0
 17 18  1  0
 18 19  2  0
  6  1  1  0
 13  8  1  0
 19 14  1  0
  1 20  1  0
  2 21  1  0
  3 22  1  0
  5 23  1  0
  6 24  1  0
  9 25  1  0
 10 26  1  0
 11 27  1  0
 12 28  1  0
 13 29  1  0
 15 30  1  0
 16 31  1  0
 17 32  1  0
 18 33  1  0
 19 34  1  0
M  END
>  <LigandName>  (1) 
PPhâ‚ƒ

>  <SMILES>  (1) 
C1=CC=C(C=C1)P(C2=CC=CC=C2)C3=CC=CC=C3

>  <FieldStrength>  (1) 
strong

>  <Delta_cm-1>  (1) 
28000

>  <DonorAtom>  (1) 
P

>  <Denticity>  (1) 
1

>  <DenticityDescription>  (1) 
monodentate

>  <MolecularWeight>  (1) 
262.29

>  <HDonors>  (1) 
0

>  <HAcceptors>  (1) 
0

>  <LogP>  (1) 
3.44

>  <NumAtoms>  (1) 
34

>  <NetFormalCharge>  (1) 
0

$$$$
