
     RDKit          3D

 34 36  0  0  0  0  0  0  0  0999 V2000
    0.0871   -0.0766   -1.2993 P   0  0  0  0  0  0  0  0  0  0  0  0
   -0.9359    1.3581   -0.7017 C   0  0  0  0  0  0  0  0  0  0  0  0
   -0.3234    2.5064   -0.1372 C   0  0  0  0  0  0  0  0  0  0  0  0
   -1.1067    3.6328    0.1628 C   0  0  0  0  0  0  0  0  0  0  0  0
   -2.4773    3.6379   -0.0967 C   0  0  0  0  0  0  0  0  0  0  0  0
   -3.0751    2.5063   -0.6594 C   0  0  0  0  0  0  0  0  0  0  0  0
   -2.3045    1.3835   -0.9806 C   0  0  0  0  0  0  0  0  0  0  0  0
   -0.6292   -1.5471   -0.4323 C   0  0  0  0  0  0  0  0  0  0  0  0
   -1.5618   -1.4450    0.6184 C   0  0  0  0  0  0  0  0  0  0  0  0
   -2.1918   -2.5940    1.1055 C   0  0  0  0  0  0  0  0  0  0  0  0
   -1.8731   -3.8570    0.5960 C   0  0  0  0  0  0  0  0  0  0  0  0
   -0.8984   -3.9626   -0.4021 C   0  0  0  0  0  0  0  0  0  0  0  0
   -0.2708   -2.8187   -0.9092 C   0  0  0  0  0  0  0  0  0  0  0  0
    1.7036    0.0882   -0.4154 C   0  0  0  0  0  0  0  0  0  0  0  0
    1.7999    0.0154    0.9856 C   0  0  0  0  0  0  0  0  0  0  0  0
    3.0644    0.1069    1.6026 C   0  0  0  0  0  0  0  0  0  0  0  0
    4.2151    0.2763    0.8377 C   0  0  0  0  0  0  0  0  0  0  0  0
    4.1135    0.3684   -0.5571 C   0  0  0  0  0  0  0  0  0  0  0  0
    2.8530    0.2782   -1.1739 C   0  0  0  0  0  0  0  0  0  0  0  0
    0.7489    2.5560    0.0168 H   0  0  0  0  0  0  0  0  0  0  0  0
   -0.6328    4.5086    0.5813 H   0  0  0  0  0  0  0  0  0  0  0  0
   -3.0789    4.5157    0.1040 H   0  0  0  0  0  0  0  0  0  0  0  0
   -4.1258    2.5050   -0.8855 H   0  0  0  0  0  0  0  0  0  0  0  0
   -2.7651    0.5330   -1.4820 H   0  0  0  0  0  0  0  0  0  0  0  0
   -1.8364   -0.4851    1.0263 H   0  0  0  0  0  0  0  0  0  0  0  0
   -2.9445   -2.4897    1.8646 H   0  0  0  0  0  0  0  0  0  0  0  0
   -2.3891   -4.7423    0.9693 H   0  0  0  0  0  0  0  0  0  0  0  0
   -0.6533   -4.9309   -0.8043 H   0  0  0  0  0  0  0  0  0  0  0  0
    0.4658   -2.9230   -1.7095 H   0  0  0  0  0  0  0  0  0  0  0  0
    0.9135   -0.1121    1.5998 H   0  0  0  0  0  0  0  0  0  0  0  0
    3.1268    0.0352    2.6785 H   0  0  0  0  0  0  0  0  0  0  0  0
    5.1990    0.3200    1.3186 H   0  0  0  0  0  0  0  0  0  0  0  0
    4.9962    0.4999   -1.1600 H   0  0  0  0  0  0  0  0  0  0  0  0
    2.7869    0.3526   -2.2614 H   0  0  0  0  0  0  0  0  0  0  0  0
  1  2  1  0
  2  3  2  0
  3  4  1  0
  4  5  2  0
  5  6  1  0
  6  7  2  0
  1  8  1  0
  8  9  2  0
  9 10  1  0
 10 11  2  0
 11 12  1  0
 12 13  2  0
  1 14  1  0
 14 15  2  0
 15 16  1  0
 16 17  2  0
 17 18  1  0
 18 19  2  0
  7  2  1  0
 13  8  1  0
 19 14  1  0
  3 20  1  0
  4 21  1  0
  5 22  1  0
  6 23  1  0
  7 24  1  0
  9 25  1  0
 10 26  1  0
 11 27  1  0
 12 28  1  0
 13 29  1  0
 15 30  1  0
 16 31  1  0
 17 32  1  0
 18 33  1  0
 19 34  1  0
M  END
>  <LigandName>  (1) 
PPhâ‚ƒ

>  <SMILES>  (1) 
P(c1ccccc1)(c2ccccc2)(c3ccccc3)

>  <FieldStrength>  (1) 
strong

>  <Delta_cm-1>  (1) 
28000

>  <DonorAtom>  (1) 
P

>  <Denticity>  (1) 
1

>  <DenticityDescription>  (1) 
monodentate

>  <MolecularWeight>  (1) 
262.29

>  <HDonors>  (1) 
0

>  <HAcceptors>  (1) 
0

>  <LogP>  (1) 
3.44

>  <NumAtoms>  (1) 
34

>  <NetFormalCharge>  (1) 
0

$$$$
