
     RDKit          3D

 34 36  0  0  0  0  0  0  0  0999 V2000
    0.0827   -0.0712   -1.3905 P   0  0  0  0  0  0  0  0  0  0  0  0
   -0.9082    1.3696   -0.7808 C   0  0  0  0  0  0  0  0  0  0  0  0
   -0.2989    2.5021   -0.2012 C   0  0  0  0  0  0  0  0  0  0  0  0
   -1.0791    3.5928    0.1876 C   0  0  0  0  0  0  0  0  0  0  0  0
   -2.4604    3.5776   -0.0044 C   0  0  0  0  0  0  0  0  0  0  0  0
   -3.0702    2.4714   -0.6063 C   0  0  0  0  0  0  0  0  0  0  0  0
   -2.2991    1.3670   -0.9964 C   0  0  0  0  0  0  0  0  0  0  0  0
   -0.6597   -1.5407   -0.5373 C   0  0  0  0  0  0  0  0  0  0  0  0
   -1.4688   -1.4204    0.6071 C   0  0  0  0  0  0  0  0  0  0  0  0
   -2.0248   -2.5671    1.1931 C   0  0  0  0  0  0  0  0  0  0  0  0
   -1.7575   -3.8296    0.6575 C   0  0  0  0  0  0  0  0  0  0  0  0
   -0.9553   -3.9502   -0.4725 C   0  0  0  0  0  0  0  0  0  0  0  0
   -0.4017   -2.8132   -1.0666 C   0  0  0  0  0  0  0  0  0  0  0  0
    1.6724    0.0604   -0.4626 C   0  0  0  0  0  0  0  0  0  0  0  0
    1.7282   -0.0073    0.9373 C   0  0  0  0  0  0  0  0  0  0  0  0
    2.9553    0.1092    1.5993 C   0  0  0  0  0  0  0  0  0  0  0  0
    4.1301    0.3158    0.8633 C   0  0  0  0  0  0  0  0  0  0  0  0
    4.0787    0.4033   -0.5305 C   0  0  0  0  0  0  0  0  0  0  0  0
    2.8494    0.2805   -1.1899 C   0  0  0  0  0  0  0  0  0  0  0  0
    0.7719    2.5403   -0.0532 H   0  0  0  0  0  0  0  0  0  0  0  0
   -0.6009    4.4558    0.6176 H   0  0  0  0  0  0  0  0  0  0  0  0
   -3.0575    4.4282    0.2951 H   0  0  0  0  0  0  0  0  0  0  0  0
   -4.1429    2.4770   -0.7764 H   0  0  0  0  0  0  0  0  0  0  0  0
   -2.7952    0.5134   -1.4691 H   0  0  0  0  0  0  0  0  0  0  0  0
   -1.6566   -0.4561    1.0509 H   0  0  0  0  0  0  0  0  0  0  0  0
   -2.6624   -2.4752    2.0599 H   0  0  0  0  0  0  0  0  0  0  0  0
   -2.1743   -4.7109    1.1093 H   0  0  0  0  0  0  0  0  0  0  0  0
   -0.7667   -4.9280   -0.8862 H   0  0  0  0  0  0  0  0  0  0  0  0
    0.2392   -2.9193   -1.9406 H   0  0  0  0  0  0  0  0  0  0  0  0
    0.8383   -0.1502    1.5088 H   0  0  0  0  0  0  0  0  0  0  0  0
    3.0021    0.0195    2.6751 H   0  0  0  0  0  0  0  0  0  0  0  0
    5.0837    0.4124    1.3744 H   0  0  0  0  0  0  0  0  0  0  0  0
    4.9951    0.5680   -1.0962 H   0  0  0  0  0  0  0  0  0  0  0  0
    2.8127    0.3749   -2.2755 H   0  0  0  0  0  0  0  0  0  0  0  0
  1  2  1  0
  2  3  2  0
  3  4  1  0
  4  5  2  0
  5  6  1  0
  6  7  2  0
  1  8  1  0
  8  9  2  0
  9 10  1  0
 10 11  2  0
 11 12  1  0
 12 13  2  0
  1 14  1  0
 14 15  2  0
 15 16  1  0
 16 17  2  0
 17 18  1  0
 18 19  2  0
  7  2  1  0
 13  8  1  0
 19 14  1  0
  3 20  1  0
  4 21  1  0
  5 22  1  0
  6 23  1  0
  7 24  1  0
  9 25  1  0
 10 26  1  0
 11 27  1  0
 12 28  1  0
 13 29  1  0
 15 30  1  0
 16 31  1  0
 17 32  1  0
 18 33  1  0
 19 34  1  0
M  END
>  <LigandName>  (1) 
PPhâ‚ƒ

>  <SMILES>  (1) 
P(c1ccccc1)(c2ccccc2)(c3ccccc3)

>  <FieldStrength>  (1) 
strong

>  <Delta_cm-1>  (1) 
28000

>  <DonorAtom>  (1) 
P

>  <Denticity>  (1) 
1

>  <DenticityDescription>  (1) 
monodentate

>  <MolecularWeight>  (1) 
262.29

>  <HDonors>  (1) 
0

>  <HAcceptors>  (1) 
0

>  <LogP>  (1) 
3.44

>  <NumAtoms>  (1) 
34

>  <NetFormalCharge>  (1) 
0

$$$$
