
     RDKit          3D

 34 36  0  0  0  0  0  0  0  0999 V2000
    0.0387    0.4906    1.3290 P   0  0  0  0  0  0  0  0  0  0  0  0
   -1.2072   -0.8280    0.9679 C   0  0  0  0  0  0  0  0  0  0  0  0
   -1.7908   -0.9763   -0.3021 C   0  0  0  0  0  0  0  0  0  0  0  0
   -2.7112   -2.0027   -0.5381 C   0  0  0  0  0  0  0  0  0  0  0  0
   -3.0419   -2.8962    0.4838 C   0  0  0  0  0  0  0  0  0  0  0  0
   -2.4508   -2.7657    1.7420 C   0  0  0  0  0  0  0  0  0  0  0  0
   -1.5340   -1.7368    1.9824 C   0  0  0  0  0  0  0  0  0  0  0  0
   -0.3263    1.8147    0.0881 C   0  0  0  0  0  0  0  0  0  0  0  0
   -1.6385    2.2936   -0.0483 C   0  0  0  0  0  0  0  0  0  0  0  0
   -1.9227    3.3230   -0.9500 C   0  0  0  0  0  0  0  0  0  0  0  0
   -0.8951    3.8987   -1.7018 C   0  0  0  0  0  0  0  0  0  0  0  0
    0.4200    3.4549   -1.5415 C   0  0  0  0  0  0  0  0  0  0  0  0
    0.7075    2.4263   -0.6394 C   0  0  0  0  0  0  0  0  0  0  0  0
    1.5604   -0.3276    0.6775 C   0  0  0  0  0  0  0  0  0  0  0  0
    2.6554   -0.5005    1.5346 C   0  0  0  0  0  0  0  0  0  0  0  0
    3.8214   -1.1194    1.0731 C   0  0  0  0  0  0  0  0  0  0  0  0
    3.8977   -1.5704   -0.2479 C   0  0  0  0  0  0  0  0  0  0  0  0
    2.8086   -1.3999   -1.1086 C   0  0  0  0  0  0  0  0  0  0  0  0
    1.6419   -0.7807   -0.6495 C   0  0  0  0  0  0  0  0  0  0  0  0
   -1.5421   -0.3040   -1.1112 H   0  0  0  0  0  0  0  0  0  0  0  0
   -3.1666   -2.1069   -1.5146 H   0  0  0  0  0  0  0  0  0  0  0  0
   -3.7545   -3.6901    0.3004 H   0  0  0  0  0  0  0  0  0  0  0  0
   -2.7034   -3.4615    2.5314 H   0  0  0  0  0  0  0  0  0  0  0  0
   -1.0798   -1.6478    2.9608 H   0  0  0  0  0  0  0  0  0  0  0  0
   -2.4405    1.8615    0.5369 H   0  0  0  0  0  0  0  0  0  0  0  0
   -2.9385    3.6778   -1.0635 H   0  0  0  0  0  0  0  0  0  0  0  0
   -1.1158    4.6956   -2.3995 H   0  0  0  0  0  0  0  0  0  0  0  0
    1.2181    3.9120   -2.1119 H   0  0  0  0  0  0  0  0  0  0  0  0
    1.7349    2.1142   -0.5102 H   0  0  0  0  0  0  0  0  0  0  0  0
    2.6060   -0.1551    2.5594 H   0  0  0  0  0  0  0  0  0  0  0  0
    4.6649   -1.2503    1.7399 H   0  0  0  0  0  0  0  0  0  0  0  0
    4.8002   -2.0505   -0.6046 H   0  0  0  0  0  0  0  0  0  0  0  0
    2.8690   -1.7460   -2.1325 H   0  0  0  0  0  0  0  0  0  0  0  0
    0.8150   -0.6463   -1.3320 H   0  0  0  0  0  0  0  0  0  0  0  0
  1  2  1  0
  2  3  2  0
  3  4  1  0
  4  5  2  0
  5  6  1  0
  6  7  2  0
  1  8  1  0
  8  9  2  0
  9 10  1  0
 10 11  2  0
 11 12  1  0
 12 13  2  0
  1 14  1  0
 14 15  2  0
 15 16  1  0
 16 17  2  0
 17 18  1  0
 18 19  2  0
  7  2  1  0
 13  8  1  0
 19 14  1  0
  3 20  1  0
  4 21  1  0
  5 22  1  0
  6 23  1  0
  7 24  1  0
  9 25  1  0
 10 26  1  0
 11 27  1  0
 12 28  1  0
 13 29  1  0
 15 30  1  0
 16 31  1  0
 17 32  1  0
 18 33  1  0
 19 34  1  0
M  END
>  <LigandName>  (1) 
PPhâ‚ƒ

>  <SMILES>  (1) 
P(c1ccccc1)(c2ccccc2)(c3ccccc3)

>  <FieldStrength>  (1) 
strong

>  <Delta_cm-1>  (1) 
28000

>  <DonorAtom>  (1) 
P

>  <Denticity>  (1) 
1

>  <DenticityDescription>  (1) 
monodentate

>  <MolecularWeight>  (1) 
262.29

>  <HDonors>  (1) 
0

>  <HAcceptors>  (1) 
0

>  <LogP>  (1) 
3.44

>  <NumAtoms>  (1) 
34

>  <NetFormalCharge>  (1) 
0

$$$$
