
     RDKit          3D

 11 11  0  0  0  0  0  0  0  0999 V2000
   -0.0878    1.1713    0.0042 C   0  0  0  0  0  0  0  0  0  0  0  0
   -1.2376    0.3822    0.0831 C   0  0  0  0  0  0  0  0  0  0  0  0
   -1.1126   -1.0097    0.0767 C   0  0  0  0  0  0  0  0  0  0  0  0
    0.1186   -1.5827   -0.0057 N   0  0  0  0  0  0  0  0  0  0  0  0
    1.2506   -0.8320   -0.0834 C   0  0  0  0  0  0  0  0  0  0  0  0
    1.1668    0.5631   -0.0797 C   0  0  0  0  0  0  0  0  0  0  0  0
   -0.1687    2.2506    0.0082 H   0  0  0  0  0  0  0  0  0  0  0  0
   -2.2145    0.8436    0.1485 H   0  0  0  0  0  0  0  0  0  0  0  0
   -1.9939   -1.6342    0.1372 H   0  0  0  0  0  0  0  0  0  0  0  0
    2.2151   -1.3176   -0.1479 H   0  0  0  0  0  0  0  0  0  0  0  0
    2.0639    1.1654   -0.1412 H   0  0  0  0  0  0  0  0  0  0  0  0
  1  2  2  0
  2  3  1  0
  3  4  2  0
  4  5  1  0
  5  6  2  0
  6  1  1  0
  1  7  1  0
  2  8  1  0
  3  9  1  0
  5 10  1  0
  6 11  1  0
M  END
>  <LigandName>  (1) 
py

>  <SMILES>  (1) 
c1ccncc1

>  <FieldStrength>  (1) 
moderate

>  <Delta_cm-1>  (1) 
22000

>  <DonorAtom>  (1) 
N

>  <Denticity>  (1) 
1

>  <DenticityDescription>  (1) 
monodentate

>  <MolecularWeight>  (1) 
79.1

>  <HDonors>  (1) 
0

>  <HAcceptors>  (1) 
1

>  <LogP>  (1) 
1.08

>  <NumAtoms>  (1) 
11

>  <NetFormalCharge>  (1) 
0

$$$$
