
     RDKit          3D

 11 11  0  0  0  0  0  0  0  0999 V2000
   -0.0941    1.1707   -0.0128 C   0  0  0  0  0  0  0  0  0  0  0  0
   -1.2421    0.3760    0.0241 C   0  0  0  0  0  0  0  0  0  0  0  0
   -1.1095   -1.0152    0.0388 C   0  0  0  0  0  0  0  0  0  0  0  0
    0.1272   -1.5819    0.0173 N   0  0  0  0  0  0  0  0  0  0  0  0
    1.2575   -0.8256   -0.0187 C   0  0  0  0  0  0  0  0  0  0  0  0
    1.1662    0.5689   -0.0344 C   0  0  0  0  0  0  0  0  0  0  0  0
   -0.1808    2.2495   -0.0246 H   0  0  0  0  0  0  0  0  0  0  0  0
   -2.2233    0.8324    0.0411 H   0  0  0  0  0  0  0  0  0  0  0  0
   -1.9893   -1.6441    0.0673 H   0  0  0  0  0  0  0  0  0  0  0  0
    2.2265   -1.3063   -0.0351 H   0  0  0  0  0  0  0  0  0  0  0  0
    2.0619    1.1757   -0.0631 H   0  0  0  0  0  0  0  0  0  0  0  0
  1  2  2  0
  2  3  1  0
  3  4  2  0
  4  5  1  0
  5  6  2  0
  6  1  1  0
  1  7  1  0
  2  8  1  0
  3  9  1  0
  5 10  1  0
  6 11  1  0
M  END
>  <LigandName>  (1) 
py

>  <SMILES>  (1) 
c1ccncc1

>  <FieldStrength>  (1) 
moderate

>  <Delta_cm-1>  (1) 
22000

>  <DonorAtom>  (1) 
N

>  <Denticity>  (1) 
1

>  <DenticityDescription>  (1) 
monodentate

>  <MolecularWeight>  (1) 
79.1

>  <HDonors>  (1) 
0

>  <HAcceptors>  (1) 
1

>  <LogP>  (1) 
1.08

>  <NumAtoms>  (1) 
11

>  <NetFormalCharge>  (1) 
0

$$$$
