
     RDKit          3D

 14 14  0  0  0  0  0  0  0  0999 V2000
   -1.1315   -0.2769   -0.1509 C   0  0  0  0  0  0  0  0  0  0  0  0
   -0.4322    1.0580   -0.1806 C   0  0  0  0  0  0  0  0  0  0  0  0
    1.0275    0.7008   -0.3679 C   0  0  0  0  0  0  0  0  0  0  0  0
    1.2408   -0.6246    0.2131 N   0  0  0  0  0  0  0  0  0  0  0  0
   -0.0780   -1.2505    0.3552 C   0  0  0  0  0  0  0  0  0  0  0  0
   -2.0229   -0.2537    0.5130 H   0  0  0  0  0  0  0  0  0  0  0  0
   -1.4437   -0.5596   -1.1808 H   0  0  0  0  0  0  0  0  0  0  0  0
   -0.8076    1.7020   -1.0053 H   0  0  0  0  0  0  0  0  0  0  0  0
   -0.5693    1.5769    0.7939 H   0  0  0  0  0  0  0  0  0  0  0  0
    1.2650    0.6576   -1.4532 H   0  0  0  0  0  0  0  0  0  0  0  0
    1.6861    1.4616    0.1077 H   0  0  0  0  0  0  0  0  0  0  0  0
    1.6512   -0.4993    1.1689 H   0  0  0  0  0  0  0  0  0  0  0  0
   -0.1073   -2.1911   -0.2352 H   0  0  0  0  0  0  0  0  0  0  0  0
   -0.2783   -1.5012    1.4221 H   0  0  0  0  0  0  0  0  0  0  0  0
  1  2  1  0
  2  3  1  0
  3  4  1  0
  4  5  1  0
  5  1  1  0
  1  6  1  0
  1  7  1  0
  2  8  1  0
  2  9  1  0
  3 10  1  0
  3 11  1  0
  4 12  1  0
  5 13  1  0
  5 14  1  0
M  END
>  <LigandName>  (1) 
Pyrrolidine

>  <SMILES>  (1) 
C1CCNC1

>  <FieldStrength>  (1) 
strong

>  <Delta_cm-1>  (1) 
25000

>  <DonorAtom>  (1) 
N

>  <Denticity>  (1) 
1

>  <DenticityDescription>  (1) 
monodentate

>  <MolecularWeight>  (1) 
71.12

>  <HDonors>  (1) 
1

>  <HAcceptors>  (1) 
1

>  <LogP>  (1) 
0.37

>  <NumAtoms>  (1) 
14

>  <NetFormalCharge>  (1) 
0

$$$$
