
     RDKit          3D

 14 14  0  0  0  0  0  0  0  0999 V2000
   -1.0923    0.3798   -0.0384 C   0  0  0  0  0  0  0  0  0  0  0  0
    0.1684    1.0150   -0.5667 C   0  0  0  0  0  0  0  0  0  0  0  0
    1.2931    0.1540   -0.0120 C   0  0  0  0  0  0  0  0  0  0  0  0
    0.7255   -1.1229    0.4332 N   0  0  0  0  0  0  0  0  0  0  0  0
   -0.7115   -1.0718    0.1648 C   0  0  0  0  0  0  0  0  0  0  0  0
   -1.9384    0.4875   -0.7513 H   0  0  0  0  0  0  0  0  0  0  0  0
   -1.3635    0.8368    0.9390 H   0  0  0  0  0  0  0  0  0  0  0  0
    0.1725    0.9719   -1.6785 H   0  0  0  0  0  0  0  0  0  0  0  0
    0.2592    2.0728   -0.2368 H   0  0  0  0  0  0  0  0  0  0  0  0
    1.7860    0.6797    0.8376 H   0  0  0  0  0  0  0  0  0  0  0  0
    2.0573   -0.0335   -0.7962 H   0  0  0  0  0  0  0  0  0  0  0  0
    0.8611   -1.2009    1.4693 H   0  0  0  0  0  0  0  0  0  0  0  0
   -0.9224   -1.6466   -0.7632 H   0  0  0  0  0  0  0  0  0  0  0  0
   -1.2950   -1.5218    0.9991 H   0  0  0  0  0  0  0  0  0  0  0  0
  1  2  1  0
  2  3  1  0
  3  4  1  0
  4  5  1  0
  5  1  1  0
  1  6  1  0
  1  7  1  0
  2  8  1  0
  2  9  1  0
  3 10  1  0
  3 11  1  0
  4 12  1  0
  5 13  1  0
  5 14  1  0
M  END
>  <LigandName>  (1) 
Pyrrolidine

>  <SMILES>  (1) 
C1CCNC1

>  <FieldStrength>  (1) 
strong

>  <MolecularWeight>  (1) 
71.12

>  <HDonors>  (1) 
1

>  <HAcceptors>  (1) 
1

>  <LogP>  (1) 
0.37

>  <NumAtoms>  (1) 
14

>  <NetFormalCharge>  (1) 
0

$$$$
