
     RDKit          3D

  1  0  0  0  0  0  0  0  0  0999 V2000
    0.0000    0.0000    0.0000 S   0  0  0  0  0  0  0  0  0  0  0  0
M  CHG  1   1  -2
M  END
>  <LigandName>  (1) 
S²⁻

>  <SMILES>  (1) 
[S-2]

>  <FieldStrength>  (1) 
very weak

>  <MolecularWeight>  (1) 
32.07

>  <HDonors>  (1) 
0

>  <HAcceptors>  (1) 
0

>  <LogP>  (1) 
-0.0

>  <NumAtoms>  (1) 
1

>  <NetFormalCharge>  (1) 
-2

$$$$
