
     RDKit          3D

  4  3  0  0  0  0  0  0  0  0999 V2000
    1.9000   -0.1238   -0.3739 S   0  0  0  0  0  0  0  0  0  0  0  0
    0.3954    0.1500    0.1337 C   0  0  0  0  0  0  0  0  0  0  0  0
   -0.7901    0.3656    0.5335 N   0  0  0  0  0  0  0  0  0  0  0  0
   -1.5054   -0.3919    0.4768 H   0  0  0  0  0  0  0  0  0  0  0  0
  1  2  2  0
  2  3  2  0
  3  4  1  0
M  END
>  <LigandName>  (1) 
SCNâ» (S-bound)

>  <SMILES>  (1) 
S=C=N

>  <FieldStrength>  (1) 
weak

>  <Delta_cm-1>  (1) 
14000

>  <DonorAtom>  (1) 
S

>  <Denticity>  (1) 
0

>  <DenticityDescription>  (1) 
non-dentate

>  <MolecularWeight>  (1) 
59.09

>  <HDonors>  (1) 
1

>  <HAcceptors>  (1) 
2

>  <LogP>  (1) 
0.67

>  <NumAtoms>  (1) 
4

>  <NetFormalCharge>  (1) 
0

$$$$
