
     RDKit          3D

  4  3  0  0  0  0  0  0  0  0999 V2000
    1.8946   -0.1523   -0.3849 S   0  0  0  0  0  0  0  0  0  0  0  0
    0.3895    0.1509    0.1040 C   0  0  0  0  0  0  0  0  0  0  0  0
   -0.7964    0.3898    0.4892 N   0  0  0  0  0  0  0  0  0  0  0  0
   -1.4877   -0.3884    0.5618 H   0  0  0  0  0  0  0  0  0  0  0  0
  1  2  2  0
  2  3  2  0
  3  4  1  0
M  END
>  <LigandName>  (1) 
SCNâ» (S-bound)

>  <SMILES>  (1) 
S=C=N

>  <FieldStrength>  (1) 
weak

>  <MolecularWeight>  (1) 
59.09

>  <HDonors>  (1) 
1

>  <HAcceptors>  (1) 
2

>  <LogP>  (1) 
0.67

>  <NumAtoms>  (1) 
4

>  <NetFormalCharge>  (1) 
0

$$$$
