
     RDKit          3D

 13 13  0  0  0  0  0  0  0  0999 V2000
    0.3815   -0.9875   -0.0812 C   0  0  0  0  0  0  0  0  0  0  0  0
   -0.9850   -0.3808   -0.1098 C   0  0  0  0  0  0  0  0  0  0  0  0
   -0.6967    1.0972   -0.2702 C   0  0  0  0  0  0  0  0  0  0  0  0
    0.6060    1.3739    0.1918 O   0  0  0  0  0  0  0  0  0  0  0  0
    1.2433    0.1420    0.4432 C   0  0  0  0  0  0  0  0  0  0  0  0
    0.6980   -1.2604   -1.1125 H   0  0  0  0  0  0  0  0  0  0  0  0
    0.4235   -1.8820    0.5777 H   0  0  0  0  0  0  0  0  0  0  0  0
   -1.5030   -0.5647    0.8576 H   0  0  0  0  0  0  0  0  0  0  0  0
   -1.5966   -0.7779   -0.9491 H   0  0  0  0  0  0  0  0  0  0  0  0
   -0.7639    1.3809   -1.3430 H   0  0  0  0  0  0  0  0  0  0  0  0
   -1.4335    1.7004    0.3020 H   0  0  0  0  0  0  0  0  0  0  0  0
    1.3862    0.0300    1.5400 H   0  0  0  0  0  0  0  0  0  0  0  0
    2.2403    0.1288   -0.0466 H   0  0  0  0  0  0  0  0  0  0  0  0
  1  2  1  0
  2  3  1  0
  3  4  1  0
  4  5  1  0
  5  1  1  0
  1  6  1  0
  1  7  1  0
  2  8  1  0
  2  9  1  0
  3 10  1  0
  3 11  1  0
  5 12  1  0
  5 13  1  0
M  END
>  <LigandName>  (1) 
THF

>  <SMILES>  (1) 
C1CCOC1

>  <FieldStrength>  (1) 
moderate

>  <Delta_cm-1>  (1) 
21000

>  <DonorAtom>  (1) 
O

>  <Denticity>  (1) 
0

>  <DenticityDescription>  (1) 
non-dentate

>  <MolecularWeight>  (1) 
72.11

>  <HDonors>  (1) 
0

>  <HAcceptors>  (1) 
1

>  <LogP>  (1) 
0.8

>  <NumAtoms>  (1) 
13

>  <NetFormalCharge>  (1) 
0

$$$$
