
     RDKit          3D

 13 13  0  0  0  0  0  0  0  0999 V2000
    0.5236    0.8381   -0.3882 C   0  0  0  0  0  0  0  0  0  0  0  0
   -0.8019    0.6393    0.2748 C   0  0  0  0  0  0  0  0  0  0  0  0
   -0.9813   -0.8638    0.2307 C   0  0  0  0  0  0  0  0  0  0  0  0
    0.2795   -1.4835    0.1138 O   0  0  0  0  0  0  0  0  0  0  0  0
    1.2333   -0.4742   -0.1281 C   0  0  0  0  0  0  0  0  0  0  0  0
    1.0763    1.7014    0.0423 H   0  0  0  0  0  0  0  0  0  0  0  0
    0.3834    0.9846   -1.4823 H   0  0  0  0  0  0  0  0  0  0  0  0
   -1.6173    1.1705   -0.2627 H   0  0  0  0  0  0  0  0  0  0  0  0
   -0.7546    0.9861    1.3311 H   0  0  0  0  0  0  0  0  0  0  0  0
   -1.6012   -1.1446   -0.6484 H   0  0  0  0  0  0  0  0  0  0  0  0
   -1.4906   -1.2208    1.1512 H   0  0  0  0  0  0  0  0  0  0  0  0
    1.8881   -0.3788    0.7653 H   0  0  0  0  0  0  0  0  0  0  0  0
    1.8626   -0.7542   -0.9997 H   0  0  0  0  0  0  0  0  0  0  0  0
  1  2  1  0
  2  3  1  0
  3  4  1  0
  4  5  1  0
  5  1  1  0
  1  6  1  0
  1  7  1  0
  2  8  1  0
  2  9  1  0
  3 10  1  0
  3 11  1  0
  5 12  1  0
  5 13  1  0
M  END
>  <LigandName>  (1) 
THF

>  <SMILES>  (1) 
C1CCOC1

>  <FieldStrength>  (1) 
moderate

>  <MolecularWeight>  (1) 
72.11

>  <HDonors>  (1) 
0

>  <HAcceptors>  (1) 
1

>  <LogP>  (1) 
0.8

>  <NumAtoms>  (1) 
13

>  <NetFormalCharge>  (1) 
0

$$$$
