ZN
     RDKit          2D

  1  0  0  0  0  0  0  0  0  0999 V2000
    0.0000    0.0000    0.0000 Zn  0  0  0  0  0 15  0  0  0  0  0  0
M  CHG  1   1   2
M  END
>  <LigandName>  (1) 
ZN

>  <Denticity>  (1) 
1

>  <DenticityDescription>  (1) 
monodentate

>  <Delta_cm-1>  (1) 
20000

>  <DeltaConfidence>  (1) 
default

>  <SMILES>  (1) 
[Zn+2]

>  <NetFormalCharge>  (1) 
2

$$$$
